worker=0 start=2026-06-01T14:20:50+0200
SPECTRE_CMD=/projects/bics/cadence/installs/SPECTRE231/tools/bin/spectre
runtime_check:
SPECTRE_CMD=/projects/bics/cadence/installs/SPECTRE231/tools/bin/spectre
/projects/bics/cadence/installs/SPECTRE231/tools/bin/spectre: symbolic link to `../spectre/bin/spectre'
Using wrapper/script launcher; skipping ldd on wrapper.
assigned_cases=21
========== case_id=0 run_name=st1_1_hz__st2_1_hz__trial_1 ==========
patched_files=2

Spectre (R) Circuit Simulator
Version 23.1.0.327.isr4 64bit -- 9 Dec 2023
Copyright (C) 1989-2023 Cadence Design Systems, Inc. All rights reserved
        worldwide. Cadence and Spectre are registered trademarks of Cadence
        Design Systems, Inc. All others are the property of their respective
        holders.

Includes RSA BSAFE(R) Cryptographic or Security Protocol Software from RSA
        Security, Inc.

User: s5117909   Host: bics02   HostID: 7F0101   PID: 24020
Memory  available: 121.9363 GB  physical: 135.0280 GB
Linux   : CentOS Linux release 7 (Core)
CPU Type: Intel(R) Xeon(R) Gold 6150 CPU @ 2.70GHz
All processors running at 2693.7 MHz
        Socket: Processors
        0:       0,  1,  2,  3,  4,  5,  6,  7,  8,  9
                10, 11
        
System load averages (1min, 5min, 15min) : 10.2 %, 7.9 %, 7.3 %
This is a virtual machine


Simulating `input.scs' on bics02 at 2:20:51 PM, Mon Jun 1, 2026 (process id:
        24020).
Current working directory:
        /home/s5117909/Documents/thesis/thesis_codebase/database/20260601_141611_2channel_1syn_plain/cases/st1_1_hz__st2_1_hz__trial_1/netlist
Command line:
    /projects/bics/cadence/installs/SPECTRE231/tools/bin/spectre -64  \
        input.scs +escchars +log  \
        /home/s5117909/Documents/thesis/thesis_codebase/database/20260601_141611_2channel_1syn_plain/cases/st1_1_hz__st2_1_hz__trial_1/spectre.out
        \
        -format psfxl -raw  \
       
        /home/s5117909/Documents/thesis/thesis_codebase/database/20260601_141611_2channel_1syn_plain/cases/st1_1_hz__st2_1_hz__trial_1/psf
Licensing Information:
[14:20:51.084841] Configured Lic search path (22.01-s002):
        5280@lic009.workspace.rug.nl

Licensing Information:
[14:20:51.080539] Periodic Lic check successful

Reading file: 
        /home/s5117909/Documents/thesis/thesis_codebase/database/20260601_141611_2channel_1syn_plain/cases/st1_1_hz__st2_1_hz__trial_1/netlist/input.scs
Reading file: 
        /projects/bics/cadence/installs/SPECTRE231/tools.lnx86/spectre/etc/configs/spectre.cfg
Reading file: 
        /home/s5117909/Documents/thesis/thesis_codebase/database/20260601_141611_2channel_1syn_plain/cases/st1_1_hz__st2_1_hz__trial_1/netlist/ade_e.scs
Reading file: 
        /projects/bics/designkits/xfab/xp018/cadence/v8_0/spectre/v8_0_1/lp5mos/config.scs
Reading file: 
        /projects/bics/designkits/xfab/xp018/cadence/v8_0/spectre/v8_0_1/lp5mos/param.scs
Reading file: 
        /projects/bics/designkits/xfab/xp018/cadence/v8_0/spectre/v8_0_1/lp5mos/bip.scs
Reading file: 
        /projects/bics/designkits/xfab/xp018/cadence/v8_0/spectre/v8_0_1/lp5mos/models/bip/tm_bip.scs
Reading file: 
        /projects/bics/designkits/xfab/xp018/cadence/v8_0/spectre/v8_0_1/lp5mos/models/bip/qpva.scs
Reading file: 
        /projects/bics/designkits/xfab/xp018/cadence/v8_0/spectre/v8_0_1/lp5mos/models/bip/qpvb.scs
Reading file: 
        /projects/bics/designkits/xfab/xp018/cadence/v8_0/spectre/v8_0_1/lp5mos/models/bip/qpvc.scs
Reading file: 
        /projects/bics/designkits/xfab/xp018/cadence/v8_0/spectre/v8_0_1/lp5mos/models/bip/qpva5.scs
Reading file: 
        /projects/bics/designkits/xfab/xp018/cadence/v8_0/spectre/v8_0_1/lp5mos/models/bip/qpvb5.scs
Reading file: 
        /projects/bics/designkits/xfab/xp018/cadence/v8_0/spectre/v8_0_1/lp5mos/models/bip/qpvc5.scs
Reading file: 
        /projects/bics/designkits/xfab/xp018/cadence/v8_0/spectre/v8_0_1/lp5mos/models/bip/qnva.scs
Reading file: 
        /projects/bics/designkits/xfab/xp018/cadence/v8_0/spectre/v8_0_1/lp5mos/models/bip/qnva5.scs
Reading file: 
        /projects/bics/designkits/xfab/xp018/cadence/v8_0/spectre/v8_0_1/lp5mos/models/bip/qnvb.scs
Reading file: 
        /projects/bics/designkits/xfab/xp018/cadence/v8_0/spectre/v8_0_1/lp5mos/models/bip/qpvh.scs
Reading file: 
        /projects/bics/designkits/xfab/xp018/cadence/v8_0/spectre/v8_0_1/lp5mos/models/bip/qpvhascr.scs
Reading file: 
        /projects/bics/designkits/xfab/xp018/cadence/v8_0/spectre/v8_0_1/lp5mos/models/bip/qnvc.scs
Reading file: 
        /projects/bics/designkits/xfab/xp018/cadence/v8_0/spectre/v8_0_1/lp5mos/models/bip/qnvca.scs
Reading file: 
        /projects/bics/designkits/xfab/xp018/cadence/v8_0/spectre/v8_0_1/lp5mos/models/bip/qnvcra.scs
Reading file: 
        /projects/bics/designkits/xfab/xp018/cadence/v8_0/spectre/v8_0_1/lp5mos/models/bip/qnvcrb.scs
Reading file: 
        /projects/bics/designkits/xfab/xp018/cadence/v8_0/spectre/v8_0_1/lp5mos/models/bip/qpv_pa.scs
Reading file: 
        /projects/bics/designkits/xfab/xp018/cadence/v8_0/spectre/v8_0_1/lp5mos/models/bip/qpv_pb.scs
Reading file: 
        /projects/bics/designkits/xfab/xp018/cadence/v8_0/spectre/v8_0_1/lp5mos/models/bip/qpv_pc.scs
Reading file: 
        /projects/bics/designkits/xfab/xp018/cadence/v8_0/spectre/v8_0_1/lp5mos/models/bip/qpv_pd.scs
Reading file: 
        /projects/bics/designkits/xfab/xp018/cadence/v8_0/spectre/v8_0_1/lp5mos/models/bip/qpv_pe.scs
Reading file: 
        /projects/bics/designkits/xfab/xp018/cadence/v8_0/spectre/v8_0_1/lp5mos/models/bip/qpv_pf.scs
Reading file: 
        /projects/bics/designkits/xfab/xp018/cadence/v8_0/spectre/v8_0_1/lp5mos/models/bip/qpv_pf2.scs
Reading file: 
        /projects/bics/designkits/xfab/xp018/cadence/v8_0/spectre/v8_0_1/lp5mos/models/bip/qpv_pg.scs
Reading file: 
        /projects/bics/designkits/xfab/xp018/cadence/v8_0/spectre/v8_0_1/lp5mos/models/bip/qnl_pa.scs
Reading file: 
        /projects/bics/designkits/xfab/xp018/cadence/v8_0/spectre/v8_0_1/lp5mos/models/bip/qnl_pb.scs
Reading file: 
        /projects/bics/designkits/xfab/xp018/cadence/v8_0/spectre/v8_0_1/lp5mos/models/bip/qpl_pa.scs
Reading file: 
        /projects/bics/designkits/xfab/xp018/cadence/v8_0/spectre/v8_0_1/lp5mos/models/bip/qpl_pb.scs
Reading file: 
        /projects/bics/designkits/xfab/xp018/cadence/v8_0/spectre/v8_0_1/lp5mos/models/bip/qpv_ndia.scs
Reading file: 
        /projects/bics/designkits/xfab/xp018/cadence/v8_0/spectre/v8_0_1/lp5mos/models/bip/qnv_ndia.scs
Reading file: 
        /projects/bics/designkits/xfab/xp018/cadence/v8_0/spectre/v8_0_1/lp5mos/models/bip/qpv_ndib.scs
Reading file: 
        /projects/bics/designkits/xfab/xp018/cadence/v8_0/spectre/v8_0_1/lp5mos/models/bip/qnv_ndib.scs
Reading file: 
        /projects/bics/designkits/xfab/xp018/cadence/v8_0/spectre/v8_0_1/lp5mos/models/bip/qpv_nhva.scs
Reading file: 
        /projects/bics/designkits/xfab/xp018/cadence/v8_0/spectre/v8_0_1/lp5mos/models/bip/qpv_nhvb.scs
Reading file: 
        /projects/bics/designkits/xfab/xp018/cadence/v8_0/spectre/v8_0_1/lp5mos/models/bip/qpv_phva.scs
Reading file: 
        /projects/bics/designkits/xfab/xp018/cadence/v8_0/spectre/v8_0_1/lp5mos/models/bip/qpv_phvb.scs
Reading file: 
        /projects/bics/designkits/xfab/xp018/cadence/v8_0/spectre/v8_0_1/lp5mos/cap.scs
Reading file: 
        /projects/bics/designkits/xfab/xp018/cadence/v8_0/spectre/v8_0_1/lp5mos/models/cap/tm_cap.scs
Reading file: 
        /projects/bics/designkits/xfab/xp018/cadence/v8_0/spectre/v8_0_1/lp5mos/models/cap/csandwt3.scs
Reading file: 
        /projects/bics/designkits/xfab/xp018/cadence/v8_0/spectre/v8_0_1/lp5mos/models/cap/csandwt4.scs
Reading file: 
        /projects/bics/designkits/xfab/xp018/cadence/v8_0/spectre/v8_0_1/lp5mos/models/cap/csandwt5.scs
Reading file: 
        /projects/bics/designkits/xfab/xp018/cadence/v8_0/spectre/v8_0_1/lp5mos/models/cap/csf2p.scs
Reading file: 
        /projects/bics/designkits/xfab/xp018/cadence/v8_0/spectre/v8_0_1/lp5mos/models/cap/csf3p.scs
Reading file: 
        /projects/bics/designkits/xfab/xp018/cadence/v8_0/spectre/v8_0_1/lp5mos/models/cap/csf3.scs
Reading file: 
        /projects/bics/designkits/xfab/xp018/cadence/v8_0/spectre/v8_0_1/lp5mos/models/cap/csf4.scs
Reading file: 
        /projects/bics/designkits/xfab/xp018/cadence/v8_0/spectre/v8_0_1/lp5mos/models/cap/csf5.scs
Reading file: 
        /projects/bics/designkits/xfab/xp018/cadence/v8_0/spectre/v8_0_1/lp5mos/models/cap/csft4.scs
Reading file: 
        /projects/bics/designkits/xfab/xp018/cadence/v8_0/spectre/v8_0_1/lp5mos/models/cap/csft5.scs
Reading file: 
        /projects/bics/designkits/xfab/xp018/cadence/v8_0/spectre/v8_0_1/lp5mos/models/cap/csft6.scs
Reading file: 
        /projects/bics/designkits/xfab/xp018/cadence/v8_0/spectre/v8_0_1/lp5mos/models/cap/csf3a.scs
Reading file: 
        /projects/bics/designkits/xfab/xp018/cadence/v8_0/spectre/v8_0_1/lp5mos/models/cap/csf4a.scs
Reading file: 
        /projects/bics/designkits/xfab/xp018/cadence/v8_0/spectre/v8_0_1/lp5mos/models/cap/csf5a.scs
Reading file: 
        /projects/bics/designkits/xfab/xp018/cadence/v8_0/spectre/v8_0_1/lp5mos/models/cap/csft4a.scs
Reading file: 
        /projects/bics/designkits/xfab/xp018/cadence/v8_0/spectre/v8_0_1/lp5mos/models/cap/csft5a.scs
Reading file: 
        /projects/bics/designkits/xfab/xp018/cadence/v8_0/spectre/v8_0_1/lp5mos/models/cap/csft6a.scs
Reading file: 
        /projects/bics/designkits/xfab/xp018/cadence/v8_0/spectre/v8_0_1/lp5mos/models/cap/cmm3.scs
Reading file: 
        /projects/bics/designkits/xfab/xp018/cadence/v8_0/spectre/v8_0_1/lp5mos/models/cap/cmm3t.scs
Reading file: 
        /projects/bics/designkits/xfab/xp018/cadence/v8_0/spectre/v8_0_1/lp5mos/models/cap/cmm4.scs
Reading file: 
        /projects/bics/designkits/xfab/xp018/cadence/v8_0/spectre/v8_0_1/lp5mos/models/cap/cmm4t.scs
Reading file: 
        /projects/bics/designkits/xfab/xp018/cadence/v8_0/spectre/v8_0_1/lp5mos/models/cap/cmm5.scs
Reading file: 
        /projects/bics/designkits/xfab/xp018/cadence/v8_0/spectre/v8_0_1/lp5mos/models/cap/cmm5t.scs
Reading file: 
        /projects/bics/designkits/xfab/xp018/cadence/v8_0/spectre/v8_0_1/lp5mos/models/cap/cmm6t.scs
Reading file: 
        /projects/bics/designkits/xfab/xp018/cadence/v8_0/spectre/v8_0_1/lp5mos/models/cap/cmmh3.scs
Reading file: 
        /projects/bics/designkits/xfab/xp018/cadence/v8_0/spectre/v8_0_1/lp5mos/models/cap/cmmh3t.scs
Reading file: 
        /projects/bics/designkits/xfab/xp018/cadence/v8_0/spectre/v8_0_1/lp5mos/models/cap/cmmh3l.scs
Reading file: 
        /projects/bics/designkits/xfab/xp018/cadence/v8_0/spectre/v8_0_1/lp5mos/models/cap/cmmh4.scs
Reading file: 
        /projects/bics/designkits/xfab/xp018/cadence/v8_0/spectre/v8_0_1/lp5mos/models/cap/cmmh4t.scs
Reading file: 
        /projects/bics/designkits/xfab/xp018/cadence/v8_0/spectre/v8_0_1/lp5mos/models/cap/cmmh4l.scs
Reading file: 
        /projects/bics/designkits/xfab/xp018/cadence/v8_0/spectre/v8_0_1/lp5mos/models/cap/cmmh5.scs
Reading file: 
        /projects/bics/designkits/xfab/xp018/cadence/v8_0/spectre/v8_0_1/lp5mos/models/cap/cmmh5t.scs
Reading file: 
        /projects/bics/designkits/xfab/xp018/cadence/v8_0/spectre/v8_0_1/lp5mos/models/cap/cmmh5l.scs
Reading file: 
        /projects/bics/designkits/xfab/xp018/cadence/v8_0/spectre/v8_0_1/lp5mos/models/cap/cmmh6t.scs
Reading file: 
        /projects/bics/designkits/xfab/xp018/cadence/v8_0/spectre/v8_0_1/lp5mos/models/cap/cmmh6l.scs
Reading file: 
        /projects/bics/designkits/xfab/xp018/cadence/v8_0/spectre/v8_0_1/lp5mos/models/cap/cdmm4.scs
Reading file: 
        /projects/bics/designkits/xfab/xp018/cadence/v8_0/spectre/v8_0_1/lp5mos/models/cap/cdmm4t.scs
Reading file: 
        /projects/bics/designkits/xfab/xp018/cadence/v8_0/spectre/v8_0_1/lp5mos/models/cap/cdmmh4.scs
Reading file: 
        /projects/bics/designkits/xfab/xp018/cadence/v8_0/spectre/v8_0_1/lp5mos/models/cap/cdmmh4t.scs
Reading file: 
        /projects/bics/designkits/xfab/xp018/cadence/v8_0/spectre/v8_0_1/lp5mos/models/cap/cdmm5.scs
Reading file: 
        /projects/bics/designkits/xfab/xp018/cadence/v8_0/spectre/v8_0_1/lp5mos/models/cap/cdmm5t.scs
Reading file: 
        /projects/bics/designkits/xfab/xp018/cadence/v8_0/spectre/v8_0_1/lp5mos/models/cap/cdmmh5.scs
Reading file: 
        /projects/bics/designkits/xfab/xp018/cadence/v8_0/spectre/v8_0_1/lp5mos/models/cap/cdmmh5t.scs
Reading file: 
        /projects/bics/designkits/xfab/xp018/cadence/v8_0/spectre/v8_0_1/lp5mos/models/cap/cdmm6t.scs
Reading file: 
        /projects/bics/designkits/xfab/xp018/cadence/v8_0/spectre/v8_0_1/lp5mos/models/cap/cdmmh6t.scs
Reading file: 
        /projects/bics/designkits/xfab/xp018/cadence/v8_0/spectre/v8_0_1/lp5mos/models/cap/ctmm5.scs
Reading file: 
        /projects/bics/designkits/xfab/xp018/cadence/v8_0/spectre/v8_0_1/lp5mos/models/cap/ctmm5t.scs
Reading file: 
        /projects/bics/designkits/xfab/xp018/cadence/v8_0/spectre/v8_0_1/lp5mos/models/cap/ctmmh5.scs
Reading file: 
        /projects/bics/designkits/xfab/xp018/cadence/v8_0/spectre/v8_0_1/lp5mos/models/cap/ctmmh5t.scs
Reading file: 
        /projects/bics/designkits/xfab/xp018/cadence/v8_0/spectre/v8_0_1/lp5mos/models/cap/ctmm6t.scs
Reading file: 
        /projects/bics/designkits/xfab/xp018/cadence/v8_0/spectre/v8_0_1/lp5mos/models/cap/ctmmh6t.scs
Reading file: 
        /projects/bics/designkits/xfab/xp018/cadence/v8_0/spectre/v8_0_1/lp5mos/models/cap/cp1sub.scs
Reading file: 
        /projects/bics/designkits/xfab/xp018/cadence/v8_0/spectre/v8_0_1/lp5mos/models/cap/cp1suba.scs
Reading file: 
        /projects/bics/designkits/xfab/xp018/cadence/v8_0/spectre/v8_0_1/lp5mos/models/cap/cp1subp.scs
Reading file: 
        /projects/bics/designkits/xfab/xp018/cadence/v8_0/spectre/v8_0_1/lp5mos/models/cap/p_cap.scs
Reading file: 
        /projects/bics/designkits/xfab/xp018/cadence/v8_0/spectre/v8_0_1/lp5mos/models/cap/oc_m60v_60v.scs
Reading file: 
        /projects/bics/designkits/xfab/xp018/cadence/v8_0/spectre/v8_0_1/lp5mos/models/cap/mosvc.scs
Reading file: 
        /projects/bics/designkits/xfab/xp018/cadence/v8_0/spectre/v8_0_1/lp5mos/models/cap/mosvc_pmos.scs
Reading file: 
        /projects/bics/designkits/xfab/xp018/cadence/v8_0/spectre/v8_0_1/lp5mos/models/cap/mosvci_a.scs
Reading file: 
        /projects/bics/designkits/xfab/xp018/cadence/v8_0/spectre/v8_0_1/lp5mos/models/cap/mosvci_b.scs
Reading file: 
        /projects/bics/designkits/xfab/xp018/cadence/v8_0/spectre/v8_0_1/lp5mos/models/cap/mosvci_d.scs
Reading file: 
        /projects/bics/designkits/xfab/xp018/cadence/v8_0/spectre/v8_0_1/lp5mos/models/cap/mosvci_m.scs
Reading file: 
        /projects/bics/designkits/xfab/xp018/cadence/v8_0/spectre/v8_0_1/lp5mos/models/cap/mosvci_nmos.scs
Reading file: 
        /projects/bics/designkits/xfab/xp018/cadence/v8_0/spectre/v8_0_1/lp5mos/models/cap/mosvc5.scs
Reading file: 
        /projects/bics/designkits/xfab/xp018/cadence/v8_0/spectre/v8_0_1/lp5mos/models/cap/mosvc5_pmos.scs
Reading file: 
        /projects/bics/designkits/xfab/xp018/cadence/v8_0/spectre/v8_0_1/lp5mos/models/cap/mosvc5i_a.scs
Reading file: 
        /projects/bics/designkits/xfab/xp018/cadence/v8_0/spectre/v8_0_1/lp5mos/models/cap/mosvc5i_b.scs
Reading file: 
        /projects/bics/designkits/xfab/xp018/cadence/v8_0/spectre/v8_0_1/lp5mos/models/cap/mosvc5i_d.scs
Reading file: 
        /projects/bics/designkits/xfab/xp018/cadence/v8_0/spectre/v8_0_1/lp5mos/models/cap/mosvc5i_m.scs
Reading file: 
        /projects/bics/designkits/xfab/xp018/cadence/v8_0/spectre/v8_0_1/lp5mos/models/cap/mosvc5i_nmos.scs
Reading file: 
        /projects/bics/designkits/xfab/xp018/cadence/v8_0/spectre/v8_0_1/lp5mos/models/cap/tag_25v.scs
Reading file: 
        /projects/bics/designkits/xfab/xp018/cadence/v8_0/spectre/v8_0_1/lp5mos/models/cap/tag_60v.scs
Reading file: 
        /projects/bics/designkits/xfab/xp018/cadence/v8_0/spectre/v8_0_1/lp5mos/models/cap/tag_100v.scs
Reading file: 
        /projects/bics/designkits/xfab/xp018/cadence/v8_0/spectre/v8_0_1/lp5mos/models/cap/tag_m25v.scs
Reading file: 
        /projects/bics/designkits/xfab/xp018/cadence/v8_0/spectre/v8_0_1/lp5mos/models/cap/tag_m60v.scs
Reading file: 
        /projects/bics/designkits/xfab/xp018/cadence/v8_0/spectre/v8_0_1/lp5mos/models/cap/tag_m100v.scs
Reading file: 
        /projects/bics/designkits/xfab/xp018/cadence/v8_0/spectre/v8_0_1/lp5mos/dio.scs
Reading file: 
        /projects/bics/designkits/xfab/xp018/cadence/v8_0/spectre/v8_0_1/lp5mos/models/dio/tm_dio.scs
Reading file: 
        /projects/bics/designkits/xfab/xp018/cadence/v8_0/spectre/v8_0_1/lp5mos/models/dio/dn.scs
Reading file: 
        /projects/bics/designkits/xfab/xp018/cadence/v8_0/spectre/v8_0_1/lp5mos/models/dio/dnn.scs
Reading file: 
        /projects/bics/designkits/xfab/xp018/cadence/v8_0/spectre/v8_0_1/lp5mos/models/dio/dp.scs
Reading file: 
        /projects/bics/designkits/xfab/xp018/cadence/v8_0/spectre/v8_0_1/lp5mos/models/dio/dnw.scs
Reading file: 
        /projects/bics/designkits/xfab/xp018/cadence/v8_0/spectre/v8_0_1/lp5mos/models/dio/dn5.scs
Reading file: 
        /projects/bics/designkits/xfab/xp018/cadence/v8_0/spectre/v8_0_1/lp5mos/models/dio/dnn5.scs
Reading file: 
        /projects/bics/designkits/xfab/xp018/cadence/v8_0/spectre/v8_0_1/lp5mos/models/dio/dp5.scs
Reading file: 
        /projects/bics/designkits/xfab/xp018/cadence/v8_0/spectre/v8_0_1/lp5mos/models/dio/dnw5.scs
Reading file: 
        /projects/bics/designkits/xfab/xp018/cadence/v8_0/spectre/v8_0_1/lp5mos/models/dio/ddnwmv.scs
Reading file: 
        /projects/bics/designkits/xfab/xp018/cadence/v8_0/spectre/v8_0_1/lp5mos/models/dio/ddnw15.scs
Reading file: 
        /projects/bics/designkits/xfab/xp018/cadence/v8_0/spectre/v8_0_1/lp5mos/models/dio/ddnw25.scs
Reading file: 
        /projects/bics/designkits/xfab/xp018/cadence/v8_0/spectre/v8_0_1/lp5mos/models/dio/ddnw60.scs
Reading file: 
        /projects/bics/designkits/xfab/xp018/cadence/v8_0/spectre/v8_0_1/lp5mos/models/dio/dpdnwmv.scs
Reading file: 
        /projects/bics/designkits/xfab/xp018/cadence/v8_0/spectre/v8_0_1/lp5mos/models/dio/dpdnw15.scs
Reading file: 
        /projects/bics/designkits/xfab/xp018/cadence/v8_0/spectre/v8_0_1/lp5mos/models/dio/dpdnw25.scs
Reading file: 
        /projects/bics/designkits/xfab/xp018/cadence/v8_0/spectre/v8_0_1/lp5mos/models/dio/dpdnw60.scs
Reading file: 
        /projects/bics/designkits/xfab/xp018/cadence/v8_0/spectre/v8_0_1/lp5mos/models/dio/dipdnwmv.scs
Reading file: 
        /projects/bics/designkits/xfab/xp018/cadence/v8_0/spectre/v8_0_1/lp5mos/models/dio/dipdnw15.scs
Reading file: 
        /projects/bics/designkits/xfab/xp018/cadence/v8_0/spectre/v8_0_1/lp5mos/models/dio/dipdnw25.scs
Reading file: 
        /projects/bics/designkits/xfab/xp018/cadence/v8_0/spectre/v8_0_1/lp5mos/models/dio/dipdnw60.scs
Reading file: 
        /projects/bics/designkits/xfab/xp018/cadence/v8_0/spectre/v8_0_1/lp5mos/models/dio/dipdnwmvz.scs
Reading file: 
        /projects/bics/designkits/xfab/xp018/cadence/v8_0/spectre/v8_0_1/lp5mos/models/dio/dipdnw15z.scs
Reading file: 
        /projects/bics/designkits/xfab/xp018/cadence/v8_0/spectre/v8_0_1/lp5mos/models/dio/dipdnw25z.scs
Reading file: 
        /projects/bics/designkits/xfab/xp018/cadence/v8_0/spectre/v8_0_1/lp5mos/models/dio/dipdnw60z.scs
Reading file: 
        /projects/bics/designkits/xfab/xp018/cadence/v8_0/spectre/v8_0_1/lp5mos/models/dio/dnp.scs
Reading file: 
        /projects/bics/designkits/xfab/xp018/cadence/v8_0/spectre/v8_0_1/lp5mos/models/dio/dpp.scs
Reading file: 
        /projects/bics/designkits/xfab/xp018/cadence/v8_0/spectre/v8_0_1/lp5mos/models/dio/dsa.scs
Reading file: 
        /projects/bics/designkits/xfab/xp018/cadence/v8_0/spectre/v8_0_1/lp5mos/models/dio/dsaa.scs
Reading file: 
        /projects/bics/designkits/xfab/xp018/cadence/v8_0/spectre/v8_0_1/lp5mos/models/dio/dsaa_qp1.scs
Reading file: 
        /projects/bics/designkits/xfab/xp018/cadence/v8_0/spectre/v8_0_1/lp5mos/models/dio/dsb.scs
Reading file: 
        /projects/bics/designkits/xfab/xp018/cadence/v8_0/spectre/v8_0_1/lp5mos/models/dio/dsba.scs
Reading file: 
        /projects/bics/designkits/xfab/xp018/cadence/v8_0/spectre/v8_0_1/lp5mos/models/dio/dsba_qp1.scs
Reading file: 
        /projects/bics/designkits/xfab/xp018/cadence/v8_0/spectre/v8_0_1/lp5mos/models/dio/dndd.scs
Reading file: 
        /projects/bics/designkits/xfab/xp018/cadence/v8_0/spectre/v8_0_1/lp5mos/models/dio/dpdddnw.scs
Reading file: 
        /projects/bics/designkits/xfab/xp018/cadence/v8_0/spectre/v8_0_1/lp5mos/models/dio/dpdddnw_esd.scs
Reading file: 
        /projects/bics/designkits/xfab/xp018/cadence/v8_0/spectre/v8_0_1/lp5mos/models/dio/dpddipdnw_esd.scs
Reading file: 
        /projects/bics/designkits/xfab/xp018/cadence/v8_0/spectre/v8_0_1/lp5mos/models/dio/dnddpb.scs
Reading file: 
        /projects/bics/designkits/xfab/xp018/cadence/v8_0/spectre/v8_0_1/lp5mos/models/dio/dvdnw.scs
Reading file: 
        /projects/bics/designkits/xfab/xp018/cadence/v8_0/spectre/v8_0_1/lp5mos/models/dio/dvdnw_esd.scs
Reading file: 
        /projects/bics/designkits/xfab/xp018/cadence/v8_0/spectre/v8_0_1/lp5mos/models/dio/ddpbvdnw.scs
Reading file: 
        /projects/bics/designkits/xfab/xp018/cadence/v8_0/spectre/v8_0_1/lp5mos/models/dio/dpd2dnw.scs
Reading file: 
        /projects/bics/designkits/xfab/xp018/cadence/v8_0/spectre/v8_0_1/lp5mos/models/dio/dndddpb.scs
Reading file: 
        /projects/bics/designkits/xfab/xp018/cadence/v8_0/spectre/v8_0_1/lp5mos/models/dio/dpddvdnw_esd.scs
Reading file: 
        /projects/bics/designkits/xfab/xp018/cadence/v8_0/spectre/v8_0_1/lp5mos/models/dio/dpburvdnw.scs
Reading file: 
        /projects/bics/designkits/xfab/xp018/cadence/v8_0/spectre/v8_0_1/lp5mos/models/dio/dpddvdnw.scs
Reading file: 
        /projects/bics/designkits/xfab/xp018/cadence/v8_0/spectre/v8_0_1/lp5mos/models/dio/dpddipvdnw_esd.scs
Reading file: 
        /projects/bics/designkits/xfab/xp018/cadence/v8_0/spectre/v8_0_1/lp5mos/models/dio/dn5nm.scs
Reading file: 
        /projects/bics/designkits/xfab/xp018/cadence/v8_0/spectre/v8_0_1/lp5mos/models/dio/dp5pm.scs
Reading file: 
        /projects/bics/designkits/xfab/xp018/cadence/v8_0/spectre/v8_0_1/lp5mos/models/dio/dza_a.scs
Reading file: 
        /projects/bics/designkits/xfab/xp018/cadence/v8_0/spectre/v8_0_1/lp5mos/models/dio/dza_b.scs
Reading file: 
        /projects/bics/designkits/xfab/xp018/cadence/v8_0/spectre/v8_0_1/lp5mos/models/dio/dza_d.scs
Reading file: 
        /projects/bics/designkits/xfab/xp018/cadence/v8_0/spectre/v8_0_1/lp5mos/models/dio/dza_m.scs
Reading file: 
        /projects/bics/designkits/xfab/xp018/cadence/v8_0/spectre/v8_0_1/lp5mos/models/dio/dzb_a.scs
Reading file: 
        /projects/bics/designkits/xfab/xp018/cadence/v8_0/spectre/v8_0_1/lp5mos/models/dio/dzb_b.scs
Reading file: 
        /projects/bics/designkits/xfab/xp018/cadence/v8_0/spectre/v8_0_1/lp5mos/models/dio/dzb_d.scs
Reading file: 
        /projects/bics/designkits/xfab/xp018/cadence/v8_0/spectre/v8_0_1/lp5mos/models/dio/dzb_m.scs
Reading file: 
        /projects/bics/designkits/xfab/xp018/cadence/v8_0/spectre/v8_0_1/lp5mos/models/dio/dzc.scs
Reading file: 
        /projects/bics/designkits/xfab/xp018/cadence/v8_0/spectre/v8_0_1/lp5mos/models/dio/ddnwnvm.scs
Reading file: 
        /projects/bics/designkits/xfab/xp018/cadence/v8_0/spectre/v8_0_1/lp5mos/models/dio/dipdnwnvm.scs
Reading file: 
        /projects/bics/designkits/xfab/xp018/cadence/v8_0/spectre/v8_0_1/lp5mos/models/dio/dpdnwnvm.scs
Reading file: 
        /projects/bics/designkits/xfab/xp018/cadence/v8_0/spectre/v8_0_1/lp5mos/models/dio/dpsdnwnvm.scs
Reading file: 
        /projects/bics/designkits/xfab/xp018/cadence/v8_0/spectre/v8_0_1/lp5mos/models/dio/dpsdnwmv.scs
Reading file: 
        /projects/bics/designkits/xfab/xp018/cadence/v8_0/spectre/v8_0_1/lp5mos/models/dio/dn5ps.scs
Reading file: 
        /projects/bics/designkits/xfab/xp018/cadence/v8_0/spectre/v8_0_1/lp5mos/mos.scs
Reading file: 
        /projects/bics/designkits/xfab/xp018/cadence/v8_0/spectre/v8_0_1/lp5mos/models/mos/tm_mos.scs
Reading file: 
        /projects/bics/designkits/xfab/xp018/cadence/v8_0/spectre/v8_0_1/lp5mos/models/mos/ne.scs
Reading file: 
        /projects/bics/designkits/xfab/xp018/cadence/v8_0/spectre/v8_0_1/lp5mos/models/mos/pe.scs
Reading file: 
        /projects/bics/designkits/xfab/xp018/cadence/v8_0/spectre/v8_0_1/lp5mos/models/mos/pe_5.scs
Reading file: 
        /projects/bics/designkits/xfab/xp018/cadence/v8_0/spectre/v8_0_1/lp5mos/models/mos/nn.scs
Reading file: 
        /projects/bics/designkits/xfab/xp018/cadence/v8_0/spectre/v8_0_1/lp5mos/models/mos/nei.scs
Reading file: 
        /projects/bics/designkits/xfab/xp018/cadence/v8_0/spectre/v8_0_1/lp5mos/models/mos/nei_m_6.scs
Reading file: 
        /projects/bics/designkits/xfab/xp018/cadence/v8_0/spectre/v8_0_1/lp5mos/models/mos/nei_a_6.scs
Reading file: 
        /projects/bics/designkits/xfab/xp018/cadence/v8_0/spectre/v8_0_1/lp5mos/models/mos/nei_b_6.scs
Reading file: 
        /projects/bics/designkits/xfab/xp018/cadence/v8_0/spectre/v8_0_1/lp5mos/models/mos/nei_d_6.scs
Reading file: 
        /projects/bics/designkits/xfab/xp018/cadence/v8_0/spectre/v8_0_1/lp5mos/models/mos/pei.scs
Reading file: 
        /projects/bics/designkits/xfab/xp018/cadence/v8_0/spectre/v8_0_1/lp5mos/models/mos/pei_m_5.scs
Reading file: 
        /projects/bics/designkits/xfab/xp018/cadence/v8_0/spectre/v8_0_1/lp5mos/models/mos/pei_a_5.scs
Reading file: 
        /projects/bics/designkits/xfab/xp018/cadence/v8_0/spectre/v8_0_1/lp5mos/models/mos/pei_b_5.scs
Reading file: 
        /projects/bics/designkits/xfab/xp018/cadence/v8_0/spectre/v8_0_1/lp5mos/models/mos/pei_d_5.scs
Reading file: 
        /projects/bics/designkits/xfab/xp018/cadence/v8_0/spectre/v8_0_1/lp5mos/models/mos/pei_n_5.scs
Reading file: 
        /projects/bics/designkits/xfab/xp018/cadence/v8_0/spectre/v8_0_1/lp5mos/models/mos/nel.scs
Reading file: 
        /projects/bics/designkits/xfab/xp018/cadence/v8_0/spectre/v8_0_1/lp5mos/models/mos/pel.scs
Reading file: 
        /projects/bics/designkits/xfab/xp018/cadence/v8_0/spectre/v8_0_1/lp5mos/models/mos/pel_5.scs
Reading file: 
        /projects/bics/designkits/xfab/xp018/cadence/v8_0/spectre/v8_0_1/lp5mos/models/mos/neli.scs
Reading file: 
        /projects/bics/designkits/xfab/xp018/cadence/v8_0/spectre/v8_0_1/lp5mos/models/mos/neli_m_6.scs
Reading file: 
        /projects/bics/designkits/xfab/xp018/cadence/v8_0/spectre/v8_0_1/lp5mos/models/mos/neli_a_6.scs
Reading file: 
        /projects/bics/designkits/xfab/xp018/cadence/v8_0/spectre/v8_0_1/lp5mos/models/mos/neli_b_6.scs
Reading file: 
        /projects/bics/designkits/xfab/xp018/cadence/v8_0/spectre/v8_0_1/lp5mos/models/mos/neli_d_6.scs
Reading file: 
        /projects/bics/designkits/xfab/xp018/cadence/v8_0/spectre/v8_0_1/lp5mos/models/mos/neli_n_6.scs
Reading file: 
        /projects/bics/designkits/xfab/xp018/cadence/v8_0/spectre/v8_0_1/lp5mos/models/mos/peli.scs
Reading file: 
        /projects/bics/designkits/xfab/xp018/cadence/v8_0/spectre/v8_0_1/lp5mos/models/mos/peli_m_5.scs
Reading file: 
        /projects/bics/designkits/xfab/xp018/cadence/v8_0/spectre/v8_0_1/lp5mos/models/mos/peli_a_5.scs
Reading file: 
        /projects/bics/designkits/xfab/xp018/cadence/v8_0/spectre/v8_0_1/lp5mos/models/mos/peli_b_5.scs
Reading file: 
        /projects/bics/designkits/xfab/xp018/cadence/v8_0/spectre/v8_0_1/lp5mos/models/mos/peli_d_5.scs
Reading file: 
        /projects/bics/designkits/xfab/xp018/cadence/v8_0/spectre/v8_0_1/lp5mos/models/mos/peli_n_5.scs
Reading file: 
        /projects/bics/designkits/xfab/xp018/cadence/v8_0/spectre/v8_0_1/lp5mos/models/mos/nesvt.scs
Reading file: 
        /projects/bics/designkits/xfab/xp018/cadence/v8_0/spectre/v8_0_1/lp5mos/models/mos/nesvti.scs
Reading file: 
        /projects/bics/designkits/xfab/xp018/cadence/v8_0/spectre/v8_0_1/lp5mos/models/mos/nesvti_m_6.scs
Reading file: 
        /projects/bics/designkits/xfab/xp018/cadence/v8_0/spectre/v8_0_1/lp5mos/models/mos/nesvti_a_6.scs
Reading file: 
        /projects/bics/designkits/xfab/xp018/cadence/v8_0/spectre/v8_0_1/lp5mos/models/mos/nesvti_b_6.scs
Reading file: 
        /projects/bics/designkits/xfab/xp018/cadence/v8_0/spectre/v8_0_1/lp5mos/models/mos/nesvti_d_6.scs
Reading file: 
        /projects/bics/designkits/xfab/xp018/cadence/v8_0/spectre/v8_0_1/lp5mos/models/mos/nesvti_n_6.scs
Reading file: 
        /projects/bics/designkits/xfab/xp018/cadence/v8_0/spectre/v8_0_1/lp5mos/models/mos/pesvt.scs
Reading file: 
        /projects/bics/designkits/xfab/xp018/cadence/v8_0/spectre/v8_0_1/lp5mos/models/mos/pesvt_5.scs
Reading file: 
        /projects/bics/designkits/xfab/xp018/cadence/v8_0/spectre/v8_0_1/lp5mos/models/mos/pesvti.scs
Reading file: 
        /projects/bics/designkits/xfab/xp018/cadence/v8_0/spectre/v8_0_1/lp5mos/models/mos/pesvti_m_5.scs
Reading file: 
        /projects/bics/designkits/xfab/xp018/cadence/v8_0/spectre/v8_0_1/lp5mos/models/mos/pesvti_a_5.scs
Reading file: 
        /projects/bics/designkits/xfab/xp018/cadence/v8_0/spectre/v8_0_1/lp5mos/models/mos/pesvti_b_5.scs
Reading file: 
        /projects/bics/designkits/xfab/xp018/cadence/v8_0/spectre/v8_0_1/lp5mos/models/mos/pesvti_d_5.scs
Reading file: 
        /projects/bics/designkits/xfab/xp018/cadence/v8_0/spectre/v8_0_1/lp5mos/models/mos/pesvti_n_5.scs
Reading file: 
        /projects/bics/designkits/xfab/xp018/cadence/v8_0/spectre/v8_0_1/lp5mos/models/mos/nd5.scs
Reading file: 
        /projects/bics/designkits/xfab/xp018/cadence/v8_0/spectre/v8_0_1/lp5mos/models/mos/nd5_mos1.scs
Reading file: 
        /projects/bics/designkits/xfab/xp018/cadence/v8_0/spectre/v8_0_1/lp5mos/models/mos/nd5_mos2.scs
Reading file: 
        /projects/bics/designkits/xfab/xp018/cadence/v8_0/spectre/v8_0_1/lp5mos/models/mos/nd5i.scs
Reading file: 
        /projects/bics/designkits/xfab/xp018/cadence/v8_0/spectre/v8_0_1/lp5mos/models/mos/nd5i_mos1.scs
Reading file: 
        /projects/bics/designkits/xfab/xp018/cadence/v8_0/spectre/v8_0_1/lp5mos/models/mos/nd5i_mos2.scs
Reading file: 
        /projects/bics/designkits/xfab/xp018/cadence/v8_0/spectre/v8_0_1/lp5mos/models/mos/nd5i_m_6.scs
Reading file: 
        /projects/bics/designkits/xfab/xp018/cadence/v8_0/spectre/v8_0_1/lp5mos/models/mos/nd5i_a_6.scs
Reading file: 
        /projects/bics/designkits/xfab/xp018/cadence/v8_0/spectre/v8_0_1/lp5mos/models/mos/nd5i_b_6.scs
Reading file: 
        /projects/bics/designkits/xfab/xp018/cadence/v8_0/spectre/v8_0_1/lp5mos/models/mos/nd5i_d_6.scs
Reading file: 
        /projects/bics/designkits/xfab/xp018/cadence/v8_0/spectre/v8_0_1/lp5mos/models/mos/nn5.scs
Reading file: 
        /projects/bics/designkits/xfab/xp018/cadence/v8_0/spectre/v8_0_1/lp5mos/models/mos/nn5_jf.scs
Reading file: 
        /projects/bics/designkits/xfab/xp018/cadence/v8_0/spectre/v8_0_1/lp5mos/models/mos/ne5.scs
Reading file: 
        /projects/bics/designkits/xfab/xp018/cadence/v8_0/spectre/v8_0_1/lp5mos/models/mos/pe5.scs
Reading file: 
        /projects/bics/designkits/xfab/xp018/cadence/v8_0/spectre/v8_0_1/lp5mos/models/mos/pe5_5.scs
Reading file: 
        /projects/bics/designkits/xfab/xp018/cadence/v8_0/spectre/v8_0_1/lp5mos/models/mos/ne5i.scs
Reading file: 
        /projects/bics/designkits/xfab/xp018/cadence/v8_0/spectre/v8_0_1/lp5mos/models/mos/ne5i_m_6.scs
Reading file: 
        /projects/bics/designkits/xfab/xp018/cadence/v8_0/spectre/v8_0_1/lp5mos/models/mos/ne5i_a_6.scs
Reading file: 
        /projects/bics/designkits/xfab/xp018/cadence/v8_0/spectre/v8_0_1/lp5mos/models/mos/ne5i_b_6.scs
Reading file: 
        /projects/bics/designkits/xfab/xp018/cadence/v8_0/spectre/v8_0_1/lp5mos/models/mos/ne5i_d_6.scs
Reading file: 
        /projects/bics/designkits/xfab/xp018/cadence/v8_0/spectre/v8_0_1/lp5mos/models/mos/pe5i.scs
Reading file: 
        /projects/bics/designkits/xfab/xp018/cadence/v8_0/spectre/v8_0_1/lp5mos/models/mos/pe5i_m_5.scs
Reading file: 
        /projects/bics/designkits/xfab/xp018/cadence/v8_0/spectre/v8_0_1/lp5mos/models/mos/pe5i_a_5.scs
Reading file: 
        /projects/bics/designkits/xfab/xp018/cadence/v8_0/spectre/v8_0_1/lp5mos/models/mos/pe5i_b_5.scs
Reading file: 
        /projects/bics/designkits/xfab/xp018/cadence/v8_0/spectre/v8_0_1/lp5mos/models/mos/pe5i_d_5.scs
Reading file: 
        /projects/bics/designkits/xfab/xp018/cadence/v8_0/spectre/v8_0_1/lp5mos/models/mos/pe5i_n_5.scs
Reading file: 
        /projects/bics/designkits/xfab/xp018/cadence/v8_0/spectre/v8_0_1/lp5mos/models/mos/nede.scs
Reading file: 
        /projects/bics/designkits/xfab/xp018/cadence/v8_0/spectre/v8_0_1/lp5mos/models/mos/nede_bjt.scs
Reading file: 
        /projects/bics/designkits/xfab/xp018/cadence/v8_0/spectre/v8_0_1/lp5mos/models/mos/neda.scs
Reading file: 
        /projects/bics/designkits/xfab/xp018/cadence/v8_0/spectre/v8_0_1/lp5mos/models/mos/neda_bjt.scs
Reading file: 
        /projects/bics/designkits/xfab/xp018/cadence/v8_0/spectre/v8_0_1/lp5mos/models/mos/nedb.scs
Reading file: 
        /projects/bics/designkits/xfab/xp018/cadence/v8_0/spectre/v8_0_1/lp5mos/models/mos/nedb_bjt.scs
Reading file: 
        /projects/bics/designkits/xfab/xp018/cadence/v8_0/spectre/v8_0_1/lp5mos/models/mos/nedc.scs
Reading file: 
        /projects/bics/designkits/xfab/xp018/cadence/v8_0/spectre/v8_0_1/lp5mos/models/mos/nedc_bjt.scs
Reading file: 
        /projects/bics/designkits/xfab/xp018/cadence/v8_0/spectre/v8_0_1/lp5mos/models/mos/nedd.scs
Reading file: 
        /projects/bics/designkits/xfab/xp018/cadence/v8_0/spectre/v8_0_1/lp5mos/models/mos/nedd_bjt.scs
Reading file: 
        /projects/bics/designkits/xfab/xp018/cadence/v8_0/spectre/v8_0_1/lp5mos/models/mos/pede.scs
Reading file: 
        /projects/bics/designkits/xfab/xp018/cadence/v8_0/spectre/v8_0_1/lp5mos/models/mos/pede_bjt.scs
Reading file: 
        /projects/bics/designkits/xfab/xp018/cadence/v8_0/spectre/v8_0_1/lp5mos/models/mos/peda.scs
Reading file: 
        /projects/bics/designkits/xfab/xp018/cadence/v8_0/spectre/v8_0_1/lp5mos/models/mos/peda_bjt.scs
Reading file: 
        /projects/bics/designkits/xfab/xp018/cadence/v8_0/spectre/v8_0_1/lp5mos/models/mos/pedb.scs
Reading file: 
        /projects/bics/designkits/xfab/xp018/cadence/v8_0/spectre/v8_0_1/lp5mos/models/mos/pedb_bjt.scs
Reading file: 
        /projects/bics/designkits/xfab/xp018/cadence/v8_0/spectre/v8_0_1/lp5mos/models/mos/pedc.scs
Reading file: 
        /projects/bics/designkits/xfab/xp018/cadence/v8_0/spectre/v8_0_1/lp5mos/models/mos/pedc_bjt.scs
Reading file: 
        /projects/bics/designkits/xfab/xp018/cadence/v8_0/spectre/v8_0_1/lp5mos/models/mos/pedd.scs
Reading file: 
        /projects/bics/designkits/xfab/xp018/cadence/v8_0/spectre/v8_0_1/lp5mos/models/mos/pedd_bjt.scs
Reading file: 
        /projects/bics/designkits/xfab/xp018/cadence/v8_0/spectre/v8_0_1/lp5mos/models/mos/nmma.scs
Reading file: 
        /projects/bics/designkits/xfab/xp018/cadence/v8_0/spectre/v8_0_1/lp5mos/models/mos/nmma_bjt.scs
Reading file: 
        /projects/bics/designkits/xfab/xp018/cadence/v8_0/spectre/v8_0_1/lp5mos/models/mos/nmmb.scs
Reading file: 
        /projects/bics/designkits/xfab/xp018/cadence/v8_0/spectre/v8_0_1/lp5mos/models/mos/nmmb_bjt.scs
Reading file: 
        /projects/bics/designkits/xfab/xp018/cadence/v8_0/spectre/v8_0_1/lp5mos/models/mos/nmb.scs
Reading file: 
        /projects/bics/designkits/xfab/xp018/cadence/v8_0/spectre/v8_0_1/lp5mos/models/mos/nmb_bjt.scs
Reading file: 
        /projects/bics/designkits/xfab/xp018/cadence/v8_0/spectre/v8_0_1/lp5mos/models/mos/nmmc.scs
Reading file: 
        /projects/bics/designkits/xfab/xp018/cadence/v8_0/spectre/v8_0_1/lp5mos/models/mos/nmmc_bjt.scs
Reading file: 
        /projects/bics/designkits/xfab/xp018/cadence/v8_0/spectre/v8_0_1/lp5mos/models/mos/nmc.scs
Reading file: 
        /projects/bics/designkits/xfab/xp018/cadence/v8_0/spectre/v8_0_1/lp5mos/models/mos/nmc_bjt.scs
Reading file: 
        /projects/bics/designkits/xfab/xp018/cadence/v8_0/spectre/v8_0_1/lp5mos/models/mos/pmma.scs
Reading file: 
        /projects/bics/designkits/xfab/xp018/cadence/v8_0/spectre/v8_0_1/lp5mos/models/mos/pmma_bjt.scs
Reading file: 
        /projects/bics/designkits/xfab/xp018/cadence/v8_0/spectre/v8_0_1/lp5mos/models/mos/pmmb.scs
Reading file: 
        /projects/bics/designkits/xfab/xp018/cadence/v8_0/spectre/v8_0_1/lp5mos/models/mos/pmmb_bjt.scs
Reading file: 
        /projects/bics/designkits/xfab/xp018/cadence/v8_0/spectre/v8_0_1/lp5mos/models/mos/pmb.scs
Reading file: 
        /projects/bics/designkits/xfab/xp018/cadence/v8_0/spectre/v8_0_1/lp5mos/models/mos/pmb_bjt.scs
Reading file: 
        /projects/bics/designkits/xfab/xp018/cadence/v8_0/spectre/v8_0_1/lp5mos/models/mos/pmmc.scs
Reading file: 
        /projects/bics/designkits/xfab/xp018/cadence/v8_0/spectre/v8_0_1/lp5mos/models/mos/pmmc_bjt.scs
Reading file: 
        /projects/bics/designkits/xfab/xp018/cadence/v8_0/spectre/v8_0_1/lp5mos/models/mos/pmc.scs
Reading file: 
        /projects/bics/designkits/xfab/xp018/cadence/v8_0/spectre/v8_0_1/lp5mos/models/mos/pmc_bjt.scs
Reading file: 
        /projects/bics/designkits/xfab/xp018/cadence/v8_0/spectre/v8_0_1/lp5mos/models/mos/nhva.scs
Reading file: 
        /projects/bics/designkits/xfab/xp018/cadence/v8_0/spectre/v8_0_1/lp5mos/models/mos/nhva_bjt.scs
Reading file: 
        /projects/bics/designkits/xfab/xp018/cadence/v8_0/spectre/v8_0_1/lp5mos/models/mos/nhvb.scs
Reading file: 
        /projects/bics/designkits/xfab/xp018/cadence/v8_0/spectre/v8_0_1/lp5mos/models/mos/nhvb_bjt.scs
Reading file: 
        /projects/bics/designkits/xfab/xp018/cadence/v8_0/spectre/v8_0_1/lp5mos/models/mos/phva.scs
Reading file: 
        /projects/bics/designkits/xfab/xp018/cadence/v8_0/spectre/v8_0_1/lp5mos/models/mos/phva_bjt.scs
Reading file: 
        /projects/bics/designkits/xfab/xp018/cadence/v8_0/spectre/v8_0_1/lp5mos/models/mos/phvb.scs
Reading file: 
        /projects/bics/designkits/xfab/xp018/cadence/v8_0/spectre/v8_0_1/lp5mos/models/mos/phvb_bjt.scs
Reading file: 
        /projects/bics/designkits/xfab/xp018/cadence/v8_0/spectre/v8_0_1/lp5mos/models/mos/ndia.scs
Reading file: 
        /projects/bics/designkits/xfab/xp018/cadence/v8_0/spectre/v8_0_1/lp5mos/models/mos/ndia_bjt.scs
Reading file: 
        /projects/bics/designkits/xfab/xp018/cadence/v8_0/spectre/v8_0_1/lp5mos/models/mos/ndib.scs
Reading file: 
        /projects/bics/designkits/xfab/xp018/cadence/v8_0/spectre/v8_0_1/lp5mos/models/mos/ndib_bjt.scs
Reading file: 
        /projects/bics/designkits/xfab/xp018/cadence/v8_0/spectre/v8_0_1/lp5mos/res.scs
Reading file: 
        /projects/bics/designkits/xfab/xp018/cadence/v8_0/spectre/v8_0_1/lp5mos/models/res/tm_res.scs
Reading file: 
        /projects/bics/designkits/xfab/xp018/cadence/v8_0/spectre/v8_0_1/lp5mos/models/res/rdn.scs
Reading file: 
        /projects/bics/designkits/xfab/xp018/cadence/v8_0/spectre/v8_0_1/lp5mos/models/res/rdp.scs
Reading file: 
        /projects/bics/designkits/xfab/xp018/cadence/v8_0/spectre/v8_0_1/lp5mos/models/res/rnw.scs
Reading file: 
        /projects/bics/designkits/xfab/xp018/cadence/v8_0/spectre/v8_0_1/lp5mos/models/res/rnw_scr.scs
Reading file: 
        /projects/bics/designkits/xfab/xp018/cadence/v8_0/spectre/v8_0_1/lp5mos/models/res/rdn5.scs
Reading file: 
        /projects/bics/designkits/xfab/xp018/cadence/v8_0/spectre/v8_0_1/lp5mos/models/res/rdn5_dpc.scs
Reading file: 
        /projects/bics/designkits/xfab/xp018/cadence/v8_0/spectre/v8_0_1/lp5mos/models/res/rdp5.scs
Reading file: 
        /projects/bics/designkits/xfab/xp018/cadence/v8_0/spectre/v8_0_1/lp5mos/models/res/rnw5.scs
Reading file: 
        /projects/bics/designkits/xfab/xp018/cadence/v8_0/spectre/v8_0_1/lp5mos/models/res/rnw5_scr.scs
Reading file: 
        /projects/bics/designkits/xfab/xp018/cadence/v8_0/spectre/v8_0_1/lp5mos/models/res/rdnwmv.scs
Reading file: 
        /projects/bics/designkits/xfab/xp018/cadence/v8_0/spectre/v8_0_1/lp5mos/models/res/rnp1.scs
Reading file: 
        /projects/bics/designkits/xfab/xp018/cadence/v8_0/spectre/v8_0_1/lp5mos/models/res/rnp1_3.scs
Reading file: 
        /projects/bics/designkits/xfab/xp018/cadence/v8_0/spectre/v8_0_1/lp5mos/models/res/rpp1.scs
Reading file: 
        /projects/bics/designkits/xfab/xp018/cadence/v8_0/spectre/v8_0_1/lp5mos/models/res/rpp1_3.scs
Reading file: 
        /projects/bics/designkits/xfab/xp018/cadence/v8_0/spectre/v8_0_1/lp5mos/models/res/rpp1s.scs
Reading file: 
        /projects/bics/designkits/xfab/xp018/cadence/v8_0/spectre/v8_0_1/lp5mos/models/res/rpp1s_3.scs
Reading file: 
        /projects/bics/designkits/xfab/xp018/cadence/v8_0/spectre/v8_0_1/lp5mos/models/res/rnp1h.scs
Reading file: 
        /projects/bics/designkits/xfab/xp018/cadence/v8_0/spectre/v8_0_1/lp5mos/models/res/rnp1h_3.scs
Reading file: 
        /projects/bics/designkits/xfab/xp018/cadence/v8_0/spectre/v8_0_1/lp5mos/models/res/rpp1k1.scs
Reading file: 
        /projects/bics/designkits/xfab/xp018/cadence/v8_0/spectre/v8_0_1/lp5mos/models/res/rpp1k1_3.scs
Reading file: 
        /projects/bics/designkits/xfab/xp018/cadence/v8_0/spectre/v8_0_1/lp5mos/models/res/rm1.scs
Reading file: 
        /projects/bics/designkits/xfab/xp018/cadence/v8_0/spectre/v8_0_1/lp5mos/models/res/rm2.scs
Reading file: 
        /projects/bics/designkits/xfab/xp018/cadence/v8_0/spectre/v8_0_1/lp5mos/models/res/rm3.scs
Reading file: 
        /projects/bics/designkits/xfab/xp018/cadence/v8_0/spectre/v8_0_1/lp5mos/models/res/rm4.scs
Reading file: 
        /projects/bics/designkits/xfab/xp018/cadence/v8_0/spectre/v8_0_1/lp5mos/models/res/rm5.scs
Reading file: 
        /projects/bics/designkits/xfab/xp018/cadence/v8_0/spectre/v8_0_1/lp5mos/models/res/rmtp.scs
Reading file: 
        /projects/bics/designkits/xfab/xp018/cadence/v8_0/spectre/v8_0_1/lp5mos/models/res/rmtpl.scs
Reading file: 
        /projects/bics/designkits/xfab/xp018/cadence/v8_0/spectre/v8_0_1/lp5mos/models/res/rctdn.scs
Reading file: 
        /projects/bics/designkits/xfab/xp018/cadence/v8_0/spectre/v8_0_1/lp5mos/models/res/rctdp.scs
Reading file: 
        /projects/bics/designkits/xfab/xp018/cadence/v8_0/spectre/v8_0_1/lp5mos/models/res/rsildn.scs
Reading file: 
        /projects/bics/designkits/xfab/xp018/cadence/v8_0/spectre/v8_0_1/lp5mos/models/res/rsildp.scs
Reading file: 
        /projects/bics/designkits/xfab/xp018/cadence/v8_0/spectre/v8_0_1/lp5mos/models/res/rctp1.scs
Reading file: 
        /projects/bics/designkits/xfab/xp018/cadence/v8_0/spectre/v8_0_1/lp5mos/models/res/rsilnp1.scs
Reading file: 
        /projects/bics/designkits/xfab/xp018/cadence/v8_0/spectre/v8_0_1/lp5mos/models/res/rsilpp1.scs
Reading file: 
        /projects/bics/designkits/xfab/xp018/cadence/v8_0/spectre/v8_0_1/lp5mos/models/res/rsbdn.scs
Reading file: 
        /projects/bics/designkits/xfab/xp018/cadence/v8_0/spectre/v8_0_1/lp5mos/models/res/rsbdp.scs
Reading file: 
        /projects/bics/designkits/xfab/xp018/cadence/v8_0/spectre/v8_0_1/lp5mos/models/res/rsbdn5.scs
Reading file: 
        /projects/bics/designkits/xfab/xp018/cadence/v8_0/spectre/v8_0_1/lp5mos/models/res/rsbdp5.scs
Reading file: 
        /projects/bics/designkits/xfab/xp018/cadence/v8_0/spectre/v8_0_1/lp5mos/models/res/rsbnp1.scs
Reading file: 
        /projects/bics/designkits/xfab/xp018/cadence/v8_0/spectre/v8_0_1/lp5mos/models/res/rsbpp1.scs
Reading file: 
        /projects/bics/designkits/xfab/xp018/cadence/v8_0/spectre/v8_0_1/lp5mos/models/res/rsbpp1k1.scs
Reading file: 
        /projects/bics/designkits/xfab/xp018/cadence/v8_0/spectre/v8_0_1/lp5mos/models/res/pfuse.scs
Reading file: 
        /projects/bics/designkits/xfab/xp018/cadence/v8_0/spectre/v8_0_1/lp5mos/models/res/p_rm1.scs
Reading file: 
        /projects/bics/designkits/xfab/xp018/cadence/v8_0/spectre/v8_0_1/lp5mos/models/res/p_rm2.scs
Reading file: 
        /projects/bics/designkits/xfab/xp018/cadence/v8_0/spectre/v8_0_1/lp5mos/models/res/p_rm3.scs
Reading file: 
        /projects/bics/designkits/xfab/xp018/cadence/v8_0/spectre/v8_0_1/lp5mos/models/res/p_rm4.scs
Reading file: 
        /projects/bics/designkits/xfab/xp018/cadence/v8_0/spectre/v8_0_1/lp5mos/models/res/p_rm5.scs
Reading file: 
        /projects/bics/designkits/xfab/xp018/cadence/v8_0/spectre/v8_0_1/lp5mos/models/res/p_rmtp.scs
Reading file: 
        /projects/bics/designkits/xfab/xp018/cadence/v8_0/spectre/v8_0_1/lp5mos/models/res/p_rmtpl.scs
Reading file: 
        /projects/bics/designkits/xfab/xp018/cadence/v8_0/spectre/v8_0_1/lp5mos/models/res/p_rvia1.scs
Reading file: 
        /projects/bics/designkits/xfab/xp018/cadence/v8_0/spectre/v8_0_1/lp5mos/models/res/p_rvia2.scs
Reading file: 
        /projects/bics/designkits/xfab/xp018/cadence/v8_0/spectre/v8_0_1/lp5mos/models/res/p_rvia3.scs
Reading file: 
        /projects/bics/designkits/xfab/xp018/cadence/v8_0/spectre/v8_0_1/lp5mos/models/res/p_rvia4.scs
Reading file: 
        /projects/bics/designkits/xfab/xp018/cadence/v8_0/spectre/v8_0_1/lp5mos/models/res/p_rviatp.scs
Reading file: 
        /projects/bics/designkits/xfab/xp018/cadence/v8_0/spectre/v8_0_1/lp5mos/models/res/p_rviatpl.scs
Reading file: 
        /projects/bics/designkits/xfab/xp018/cadence/v8_0/spectre/v8_0_1/lp5mos/models/res/p_rctdn.scs
Reading file: 
        /projects/bics/designkits/xfab/xp018/cadence/v8_0/spectre/v8_0_1/lp5mos/models/res/p_rctdp.scs
Reading file: 
        /projects/bics/designkits/xfab/xp018/cadence/v8_0/spectre/v8_0_1/lp5mos/models/res/p_rctp1.scs
Reading file: 
        /projects/bics/designkits/xfab/xp018/cadence/v8_0/spectre/v8_0_1/lp5mos/models/res/p_rp1s.scs
Reading file: 
        /projects/bics/designkits/xfab/xp018/cadence/v8_0/spectre/v8_0_1/lp5mos/models/res/s_res.scs
Time for NDB Parsing: CPU = 573.664 ms, elapsed = 1.93986 s.
Time accumulated: CPU = 706.465 ms, elapsed = 1.93987 s.
Peak resident memory used = 95.6 Mbytes.

Time for Elaboration: CPU = 24.504 ms, elapsed = 24.5252 ms.
Time accumulated: CPU = 731.358 ms, elapsed = 1.96478 s.
Peak resident memory used = 103 Mbytes.


Notice from spectre during hierarchy flattening.
    The value 'psf' specified for the 'checklimitdest' option will no longer be
        supported in future releases. Use 'spectre -h' to see other recommended
        values for the 'checklimitdest' option.

 Start ADE Session ID: EEKAHCIYOfIwgj9p

Time for EDB Visiting: CPU = 1.167 ms, elapsed = 1.16801 ms.
Time accumulated: CPU = 732.667 ms, elapsed = 1.96609 s.
Peak resident memory used = 104 Mbytes.

Reading file: 
        /home/s5117909/Documents/thesis/thesis_codebase/experiments/frequency_sweep/input_data/spike_train_output/st_1/1_hz/trial_1.pwl
Reading file: 
        /home/s5117909/Documents/thesis/thesis_codebase/experiments/frequency_sweep/input_data/spike_train_output/st_2/1_hz/trial_1.pwl

Global user options:
         psfversion = 1.4.0
            vabstol = 1e-06
            iabstol = 1e-12
               temp = 27
               gmin = 1e-12
             rforce = 1
           maxnotes = 5
           maxwarns = 5
             digits = 5
               cols = 80
             pivrel = 0.001
           sensfile =
        ../../../../../Documents/thesis/thesis_codebase/thesis_database/20260527_194336_2channel_1syn_plain/netlist_template/raw/psf/sens.output
     checklimitdest = psf
               save = allpub
             reltol = 0.001
               tnom = 27
             scalem = 1
              scale = 1

Scoped user options:

Circuit inventory:
              nodes 9
            bsim3v3 6     
          capacitor 1     
            vsource 6     

Analysis and control statement inventory:
               info 7     
               tran 1     

Output statements:
             .probe 0     
           .measure 0     
               save 1     

Design checks inventory:
          paramtest 1     


Notice from spectre during initial setup.
    Protected devices exist and are not included in the circuit inventory.

Time for parsing: CPU = 4.593 ms, elapsed = 10.648 ms.
Time accumulated: CPU = 737.367 ms, elapsed = 1.97684 s.
Peak resident memory used = 106 Mbytes.

~~~~~~~~~~~~~~~~~~~~~~
Pre-Simulation Summary
~~~~~~~~~~~~~~~~~~~~~~
~~~~~~~~~~~~~~~~~~~~~~

*************************************************
Transient Analysis `tran': time = (0 s -> 500 ms)
*************************************************

Notice from spectre during IC analysis, during transient analysis `tran'.
    GminDC = 1 pS is large enough to noticeably affect the DC solution.
        dV(M4.m1:int_d) = -23.9541 mV
        Use the `gmin_check' option to eliminate or expand this report.
Warning from spectre during IC analysis, during transient analysis `tran'.
    WARNING (CMI-2139): I56.M5.m1: The bulk-source junction current exceeds
        `imelt'.  The results computed by Spectre may be inaccurate because the
        junction current model has been linearized.
    WARNING (CMI-2139): I56.M4.m1: The bulk-source junction current exceeds
        `imelt'.  The results computed by Spectre may be inaccurate because the
        junction current model has been linearized.

DC simulation time: CPU = 916 us, elapsed = 916.004 us.

Opening the PSFXL file
        /home/s5117909/Documents/thesis/thesis_codebase/database/20260601_141611_2channel_1syn_plain/cases/st1_1_hz__st2_1_hz__trial_1/psf/tran.tran.tran
        ...
Important parameter values:
    start = 0 s
    outputstart = 0 s
    stop = 500 ms
    step = 500 us
    maxstep = 10 ms
    ic = all
    useprevic = no
    skipdc = no
    reltol = 1e-03
    abstol(V) = 1 uV
    abstol(I) = 1 pA
    temp = 27 C
    tnom = 27 C
    tempeffects = all
    errpreset = moderate
    method = traponly
    lteratio = 3.5
    relref = sigglobal
    cmin = 0 F
    gmin = 1 pS


Output and IC/nodeset summary:
                 save   6       (current)
                 save   9       (voltage)


Warning from spectre at time = 500 us during transient analysis `tran'.
    WARNING (CMI-2139): I56.M5.m1: The bulk-source junction current exceeds
        `imelt'.  The results computed by Spectre may be inaccurate because the
        junction current model has been linearized.
    WARNING (CMI-2139): I56.M4.m1: The bulk-source junction current exceeds
        `imelt'.  The results computed by Spectre may be inaccurate because the
        junction current model has been linearized.

    tran: time = 15.5 ms      (3.1 %), step = 8 ms          (1.6 %)
    tran: time = 45.5 ms      (9.1 %), step = 10 ms           (2 %)
    tran: time = 65.5 ms     (13.1 %), step = 10 ms           (2 %)
    tran: time = 95.5 ms     (19.1 %), step = 10 ms           (2 %)
    tran: time = 119 ms      (23.8 %), step = 10 ms           (2 %)
    tran: time = 139 ms      (27.8 %), step = 10 ms           (2 %)
    tran: time = 169 ms      (33.8 %), step = 10 ms           (2 %)
    tran: time = 189 ms      (37.8 %), step = 10 ms           (2 %)
    tran: time = 219 ms      (43.8 %), step = 10 ms           (2 %)
    tran: time = 239 ms      (47.8 %), step = 10 ms           (2 %)
    tran: time = 269 ms      (53.8 %), step = 10 ms           (2 %)
    tran: time = 289 ms      (57.8 %), step = 10 ms           (2 %)
    tran: time = 319 ms      (63.8 %), step = 10 ms           (2 %)
    tran: time = 339 ms      (67.8 %), step = 10 ms           (2 %)
    tran: time = 369 ms      (73.8 %), step = 10 ms           (2 %)
    tran: time = 389 ms      (77.8 %), step = 10 ms           (2 %)
    tran: time = 419 ms      (83.8 %), step = 10 ms           (2 %)
    tran: time = 439 ms      (87.8 %), step = 10 ms           (2 %)
    tran: time = 469 ms      (93.8 %), step = 10 ms           (2 %)
    tran: time = 489 ms      (97.8 %), step = 10 ms           (2 %)
Number of accepted tran steps =             55

Maximum value achieved for any signal of each quantity: 
V: V(Vdd) = 1.8 V
I: I(V1:p) = 447.3 mA
If your circuit contains signals of the same quantity that are vastly different
        in size (such as high voltage circuitry combined with low voltage
        control circuitry), you should consider specifying global option
        `bin_relref=yes'.

~~~~~~~~~~~~~~~~~~~~~~~~~~~~~~~~~
Post-Transient Simulation Summary
~~~~~~~~~~~~~~~~~~~~~~~~~~~~~~~~~
   -   To further speed up simulation, consider
          add ++aps on command line
~~~~~~~~~~~~~~~~~~~~~~~~~~~~~~~~~


During simulation, the CPU load for active processors is :
         0 (10.7 %)      1 (13.3 %)      2 (12.2 %)      3 (16.9 %)
         4 (11.1 %)      5 (19.4 %)      6 (12.2 %)      7 (17.8 %)
         8 (11.6 %)      9 (14.6 %)     10 (7.7 %)      11 (8.9 %)
        Total: 156.3%
Initial condition solution time: CPU = 981 us, elapsed = 983.953 us.
Intrinsic tran analysis time:    CPU = 8.687 ms, elapsed = 22.5379 ms.
Total time required for tran analysis `tran': CPU = 12.311 ms, elapsed =
        31.9519 ms, util. = 38.5%.
Time accumulated: CPU = 757.6 ms, elapsed = 2.0327 s.
Peak resident memory used = 110 Mbytes.

finalTimeOP: writing operating point information to rawfile.

Opening the PSF file
        /home/s5117909/Documents/thesis/thesis_codebase/database/20260601_141611_2channel_1syn_plain/cases/st1_1_hz__st2_1_hz__trial_1/psf/finalTimeOP.info
        ...
modelParameter: writing model parameter values to rawfile.

Opening the PSF file
        /home/s5117909/Documents/thesis/thesis_codebase/database/20260601_141611_2channel_1syn_plain/cases/st1_1_hz__st2_1_hz__trial_1/psf/modelParameter.info
        ...
element: writing instance parameter values to rawfile.

Opening the PSF file
        /home/s5117909/Documents/thesis/thesis_codebase/database/20260601_141611_2channel_1syn_plain/cases/st1_1_hz__st2_1_hz__trial_1/psf/element.info
        ...
outputParameter: writing output parameter values to rawfile.

Opening the PSF file
        /home/s5117909/Documents/thesis/thesis_codebase/database/20260601_141611_2channel_1syn_plain/cases/st1_1_hz__st2_1_hz__trial_1/psf/outputParameter.info
        ...
designParamVals: writing netlist parameters to rawfile.

Opening the PSFASCII file
        /home/s5117909/Documents/thesis/thesis_codebase/database/20260601_141611_2channel_1syn_plain/cases/st1_1_hz__st2_1_hz__trial_1/psf/designParamVals.info
        ...
primitives: writing primitives to rawfile.

Opening the PSFASCII file
        /home/s5117909/Documents/thesis/thesis_codebase/database/20260601_141611_2channel_1syn_plain/cases/st1_1_hz__st2_1_hz__trial_1/psf/primitives.info.primitives
        ...
subckts: writing subcircuits to rawfile.

Opening the PSFASCII file
        /home/s5117909/Documents/thesis/thesis_codebase/database/20260601_141611_2channel_1syn_plain/cases/st1_1_hz__st2_1_hz__trial_1/psf/subckts.info.subckts
        ...
Licensing Information:
Lic Summary:
[14:20:53.022067] Cdslmd servers:5280@lic009.workspace.rug.nl
[14:20:53.022089] Feature usage summary:
[14:20:53.022090] Virtuoso_Multi_mode_Simulation


Aggregate audit (2:20:53 PM, Mon Jun 1, 2026):
Time used: CPU = 791 ms, elapsed = 2.1 s, util. = 37.7%.
Time spent in licensing: elapsed = 92.1 ms.
Peak memory used = 111 Mbytes.
Simulation started at: 2:20:51 PM, Mon Jun 1, 2026, ended at: 2:20:53 PM, Mon
        Jun 1, 2026, with elapsed time (wall clock): 2.1 s.
spectre completes with 0 errors, 4 warnings, and 4 notices.
FAILED case_id=0 export_rc=127
========== case_id=4 run_name=st1_1_hz__st2_4001_hz__trial_1 ==========
patched_files=2

Spectre (R) Circuit Simulator
Version 23.1.0.327.isr4 64bit -- 9 Dec 2023
Copyright (C) 1989-2023 Cadence Design Systems, Inc. All rights reserved
        worldwide. Cadence and Spectre are registered trademarks of Cadence
        Design Systems, Inc. All others are the property of their respective
        holders.

Includes RSA BSAFE(R) Cryptographic or Security Protocol Software from RSA
        Security, Inc.

User: s5117909   Host: bics02   HostID: 7F0101   PID: 24196
Memory  available: 121.9483 GB  physical: 135.0280 GB
Linux   : CentOS Linux release 7 (Core)
CPU Type: Intel(R) Xeon(R) Gold 6150 CPU @ 2.70GHz
All processors running at 2693.7 MHz
        Socket: Processors
        0:       0,  1,  2,  3,  4,  5,  6,  7,  8,  9
                10, 11
        
System load averages (1min, 5min, 15min) : 10.2 %, 7.9 %, 7.3 %
This is a virtual machine


Simulating `input.scs' on bics02 at 2:20:54 PM, Mon Jun 1, 2026 (process id:
        24196).
Current working directory:
        /home/s5117909/Documents/thesis/thesis_codebase/database/20260601_141611_2channel_1syn_plain/cases/st1_1_hz__st2_4001_hz__trial_1/netlist
Command line:
    /projects/bics/cadence/installs/SPECTRE231/tools/bin/spectre -64  \
        input.scs +escchars +log  \
        /home/s5117909/Documents/thesis/thesis_codebase/database/20260601_141611_2channel_1syn_plain/cases/st1_1_hz__st2_4001_hz__trial_1/spectre.out
        \
        -format psfxl -raw  \
       
        /home/s5117909/Documents/thesis/thesis_codebase/database/20260601_141611_2channel_1syn_plain/cases/st1_1_hz__st2_4001_hz__trial_1/psf
Licensing Information:
[14:20:54.084865] Configured Lic search path (22.01-s002):
        5280@lic009.workspace.rug.nl

Licensing Information:
[14:20:54.145227] Periodic Lic check successful

Reading file: 
        /home/s5117909/Documents/thesis/thesis_codebase/database/20260601_141611_2channel_1syn_plain/cases/st1_1_hz__st2_4001_hz__trial_1/netlist/input.scs
Reading file: 
        /projects/bics/cadence/installs/SPECTRE231/tools.lnx86/spectre/etc/configs/spectre.cfg
Reading file: 
        /home/s5117909/Documents/thesis/thesis_codebase/database/20260601_141611_2channel_1syn_plain/cases/st1_1_hz__st2_4001_hz__trial_1/netlist/ade_e.scs
Reading file: 
        /projects/bics/designkits/xfab/xp018/cadence/v8_0/spectre/v8_0_1/lp5mos/config.scs
Reading file: 
        /projects/bics/designkits/xfab/xp018/cadence/v8_0/spectre/v8_0_1/lp5mos/param.scs
Reading file: 
        /projects/bics/designkits/xfab/xp018/cadence/v8_0/spectre/v8_0_1/lp5mos/bip.scs
Reading file: 
        /projects/bics/designkits/xfab/xp018/cadence/v8_0/spectre/v8_0_1/lp5mos/models/bip/tm_bip.scs
Reading file: 
        /projects/bics/designkits/xfab/xp018/cadence/v8_0/spectre/v8_0_1/lp5mos/models/bip/qpva.scs
Reading file: 
        /projects/bics/designkits/xfab/xp018/cadence/v8_0/spectre/v8_0_1/lp5mos/models/bip/qpvb.scs
Reading file: 
        /projects/bics/designkits/xfab/xp018/cadence/v8_0/spectre/v8_0_1/lp5mos/models/bip/qpvc.scs
Reading file: 
        /projects/bics/designkits/xfab/xp018/cadence/v8_0/spectre/v8_0_1/lp5mos/models/bip/qpva5.scs
Reading file: 
        /projects/bics/designkits/xfab/xp018/cadence/v8_0/spectre/v8_0_1/lp5mos/models/bip/qpvb5.scs
Reading file: 
        /projects/bics/designkits/xfab/xp018/cadence/v8_0/spectre/v8_0_1/lp5mos/models/bip/qpvc5.scs
Reading file: 
        /projects/bics/designkits/xfab/xp018/cadence/v8_0/spectre/v8_0_1/lp5mos/models/bip/qnva.scs
Reading file: 
        /projects/bics/designkits/xfab/xp018/cadence/v8_0/spectre/v8_0_1/lp5mos/models/bip/qnva5.scs
Reading file: 
        /projects/bics/designkits/xfab/xp018/cadence/v8_0/spectre/v8_0_1/lp5mos/models/bip/qnvb.scs
Reading file: 
        /projects/bics/designkits/xfab/xp018/cadence/v8_0/spectre/v8_0_1/lp5mos/models/bip/qpvh.scs
Reading file: 
        /projects/bics/designkits/xfab/xp018/cadence/v8_0/spectre/v8_0_1/lp5mos/models/bip/qpvhascr.scs
Reading file: 
        /projects/bics/designkits/xfab/xp018/cadence/v8_0/spectre/v8_0_1/lp5mos/models/bip/qnvc.scs
Reading file: 
        /projects/bics/designkits/xfab/xp018/cadence/v8_0/spectre/v8_0_1/lp5mos/models/bip/qnvca.scs
Reading file: 
        /projects/bics/designkits/xfab/xp018/cadence/v8_0/spectre/v8_0_1/lp5mos/models/bip/qnvcra.scs
Reading file: 
        /projects/bics/designkits/xfab/xp018/cadence/v8_0/spectre/v8_0_1/lp5mos/models/bip/qnvcrb.scs
Reading file: 
        /projects/bics/designkits/xfab/xp018/cadence/v8_0/spectre/v8_0_1/lp5mos/models/bip/qpv_pa.scs
Reading file: 
        /projects/bics/designkits/xfab/xp018/cadence/v8_0/spectre/v8_0_1/lp5mos/models/bip/qpv_pb.scs
Reading file: 
        /projects/bics/designkits/xfab/xp018/cadence/v8_0/spectre/v8_0_1/lp5mos/models/bip/qpv_pc.scs
Reading file: 
        /projects/bics/designkits/xfab/xp018/cadence/v8_0/spectre/v8_0_1/lp5mos/models/bip/qpv_pd.scs
Reading file: 
        /projects/bics/designkits/xfab/xp018/cadence/v8_0/spectre/v8_0_1/lp5mos/models/bip/qpv_pe.scs
Reading file: 
        /projects/bics/designkits/xfab/xp018/cadence/v8_0/spectre/v8_0_1/lp5mos/models/bip/qpv_pf.scs
Reading file: 
        /projects/bics/designkits/xfab/xp018/cadence/v8_0/spectre/v8_0_1/lp5mos/models/bip/qpv_pf2.scs
Reading file: 
        /projects/bics/designkits/xfab/xp018/cadence/v8_0/spectre/v8_0_1/lp5mos/models/bip/qpv_pg.scs
Reading file: 
        /projects/bics/designkits/xfab/xp018/cadence/v8_0/spectre/v8_0_1/lp5mos/models/bip/qnl_pa.scs
Reading file: 
        /projects/bics/designkits/xfab/xp018/cadence/v8_0/spectre/v8_0_1/lp5mos/models/bip/qnl_pb.scs
Reading file: 
        /projects/bics/designkits/xfab/xp018/cadence/v8_0/spectre/v8_0_1/lp5mos/models/bip/qpl_pa.scs
Reading file: 
        /projects/bics/designkits/xfab/xp018/cadence/v8_0/spectre/v8_0_1/lp5mos/models/bip/qpl_pb.scs
Reading file: 
        /projects/bics/designkits/xfab/xp018/cadence/v8_0/spectre/v8_0_1/lp5mos/models/bip/qpv_ndia.scs
Reading file: 
        /projects/bics/designkits/xfab/xp018/cadence/v8_0/spectre/v8_0_1/lp5mos/models/bip/qnv_ndia.scs
Reading file: 
        /projects/bics/designkits/xfab/xp018/cadence/v8_0/spectre/v8_0_1/lp5mos/models/bip/qpv_ndib.scs
Reading file: 
        /projects/bics/designkits/xfab/xp018/cadence/v8_0/spectre/v8_0_1/lp5mos/models/bip/qnv_ndib.scs
Reading file: 
        /projects/bics/designkits/xfab/xp018/cadence/v8_0/spectre/v8_0_1/lp5mos/models/bip/qpv_nhva.scs
Reading file: 
        /projects/bics/designkits/xfab/xp018/cadence/v8_0/spectre/v8_0_1/lp5mos/models/bip/qpv_nhvb.scs
Reading file: 
        /projects/bics/designkits/xfab/xp018/cadence/v8_0/spectre/v8_0_1/lp5mos/models/bip/qpv_phva.scs
Reading file: 
        /projects/bics/designkits/xfab/xp018/cadence/v8_0/spectre/v8_0_1/lp5mos/models/bip/qpv_phvb.scs
Reading file: 
        /projects/bics/designkits/xfab/xp018/cadence/v8_0/spectre/v8_0_1/lp5mos/cap.scs
Reading file: 
        /projects/bics/designkits/xfab/xp018/cadence/v8_0/spectre/v8_0_1/lp5mos/models/cap/tm_cap.scs
Reading file: 
        /projects/bics/designkits/xfab/xp018/cadence/v8_0/spectre/v8_0_1/lp5mos/models/cap/csandwt3.scs
Reading file: 
        /projects/bics/designkits/xfab/xp018/cadence/v8_0/spectre/v8_0_1/lp5mos/models/cap/csandwt4.scs
Reading file: 
        /projects/bics/designkits/xfab/xp018/cadence/v8_0/spectre/v8_0_1/lp5mos/models/cap/csandwt5.scs
Reading file: 
        /projects/bics/designkits/xfab/xp018/cadence/v8_0/spectre/v8_0_1/lp5mos/models/cap/csf2p.scs
Reading file: 
        /projects/bics/designkits/xfab/xp018/cadence/v8_0/spectre/v8_0_1/lp5mos/models/cap/csf3p.scs
Reading file: 
        /projects/bics/designkits/xfab/xp018/cadence/v8_0/spectre/v8_0_1/lp5mos/models/cap/csf3.scs
Reading file: 
        /projects/bics/designkits/xfab/xp018/cadence/v8_0/spectre/v8_0_1/lp5mos/models/cap/csf4.scs
Reading file: 
        /projects/bics/designkits/xfab/xp018/cadence/v8_0/spectre/v8_0_1/lp5mos/models/cap/csf5.scs
Reading file: 
        /projects/bics/designkits/xfab/xp018/cadence/v8_0/spectre/v8_0_1/lp5mos/models/cap/csft4.scs
Reading file: 
        /projects/bics/designkits/xfab/xp018/cadence/v8_0/spectre/v8_0_1/lp5mos/models/cap/csft5.scs
Reading file: 
        /projects/bics/designkits/xfab/xp018/cadence/v8_0/spectre/v8_0_1/lp5mos/models/cap/csft6.scs
Reading file: 
        /projects/bics/designkits/xfab/xp018/cadence/v8_0/spectre/v8_0_1/lp5mos/models/cap/csf3a.scs
Reading file: 
        /projects/bics/designkits/xfab/xp018/cadence/v8_0/spectre/v8_0_1/lp5mos/models/cap/csf4a.scs
Reading file: 
        /projects/bics/designkits/xfab/xp018/cadence/v8_0/spectre/v8_0_1/lp5mos/models/cap/csf5a.scs
Reading file: 
        /projects/bics/designkits/xfab/xp018/cadence/v8_0/spectre/v8_0_1/lp5mos/models/cap/csft4a.scs
Reading file: 
        /projects/bics/designkits/xfab/xp018/cadence/v8_0/spectre/v8_0_1/lp5mos/models/cap/csft5a.scs
Reading file: 
        /projects/bics/designkits/xfab/xp018/cadence/v8_0/spectre/v8_0_1/lp5mos/models/cap/csft6a.scs
Reading file: 
        /projects/bics/designkits/xfab/xp018/cadence/v8_0/spectre/v8_0_1/lp5mos/models/cap/cmm3.scs
Reading file: 
        /projects/bics/designkits/xfab/xp018/cadence/v8_0/spectre/v8_0_1/lp5mos/models/cap/cmm3t.scs
Reading file: 
        /projects/bics/designkits/xfab/xp018/cadence/v8_0/spectre/v8_0_1/lp5mos/models/cap/cmm4.scs
Reading file: 
        /projects/bics/designkits/xfab/xp018/cadence/v8_0/spectre/v8_0_1/lp5mos/models/cap/cmm4t.scs
Reading file: 
        /projects/bics/designkits/xfab/xp018/cadence/v8_0/spectre/v8_0_1/lp5mos/models/cap/cmm5.scs
Reading file: 
        /projects/bics/designkits/xfab/xp018/cadence/v8_0/spectre/v8_0_1/lp5mos/models/cap/cmm5t.scs
Reading file: 
        /projects/bics/designkits/xfab/xp018/cadence/v8_0/spectre/v8_0_1/lp5mos/models/cap/cmm6t.scs
Reading file: 
        /projects/bics/designkits/xfab/xp018/cadence/v8_0/spectre/v8_0_1/lp5mos/models/cap/cmmh3.scs
Reading file: 
        /projects/bics/designkits/xfab/xp018/cadence/v8_0/spectre/v8_0_1/lp5mos/models/cap/cmmh3t.scs
Reading file: 
        /projects/bics/designkits/xfab/xp018/cadence/v8_0/spectre/v8_0_1/lp5mos/models/cap/cmmh3l.scs
Reading file: 
        /projects/bics/designkits/xfab/xp018/cadence/v8_0/spectre/v8_0_1/lp5mos/models/cap/cmmh4.scs
Reading file: 
        /projects/bics/designkits/xfab/xp018/cadence/v8_0/spectre/v8_0_1/lp5mos/models/cap/cmmh4t.scs
Reading file: 
        /projects/bics/designkits/xfab/xp018/cadence/v8_0/spectre/v8_0_1/lp5mos/models/cap/cmmh4l.scs
Reading file: 
        /projects/bics/designkits/xfab/xp018/cadence/v8_0/spectre/v8_0_1/lp5mos/models/cap/cmmh5.scs
Reading file: 
        /projects/bics/designkits/xfab/xp018/cadence/v8_0/spectre/v8_0_1/lp5mos/models/cap/cmmh5t.scs
Reading file: 
        /projects/bics/designkits/xfab/xp018/cadence/v8_0/spectre/v8_0_1/lp5mos/models/cap/cmmh5l.scs
Reading file: 
        /projects/bics/designkits/xfab/xp018/cadence/v8_0/spectre/v8_0_1/lp5mos/models/cap/cmmh6t.scs
Reading file: 
        /projects/bics/designkits/xfab/xp018/cadence/v8_0/spectre/v8_0_1/lp5mos/models/cap/cmmh6l.scs
Reading file: 
        /projects/bics/designkits/xfab/xp018/cadence/v8_0/spectre/v8_0_1/lp5mos/models/cap/cdmm4.scs
Reading file: 
        /projects/bics/designkits/xfab/xp018/cadence/v8_0/spectre/v8_0_1/lp5mos/models/cap/cdmm4t.scs
Reading file: 
        /projects/bics/designkits/xfab/xp018/cadence/v8_0/spectre/v8_0_1/lp5mos/models/cap/cdmmh4.scs
Reading file: 
        /projects/bics/designkits/xfab/xp018/cadence/v8_0/spectre/v8_0_1/lp5mos/models/cap/cdmmh4t.scs
Reading file: 
        /projects/bics/designkits/xfab/xp018/cadence/v8_0/spectre/v8_0_1/lp5mos/models/cap/cdmm5.scs
Reading file: 
        /projects/bics/designkits/xfab/xp018/cadence/v8_0/spectre/v8_0_1/lp5mos/models/cap/cdmm5t.scs
Reading file: 
        /projects/bics/designkits/xfab/xp018/cadence/v8_0/spectre/v8_0_1/lp5mos/models/cap/cdmmh5.scs
Reading file: 
        /projects/bics/designkits/xfab/xp018/cadence/v8_0/spectre/v8_0_1/lp5mos/models/cap/cdmmh5t.scs
Reading file: 
        /projects/bics/designkits/xfab/xp018/cadence/v8_0/spectre/v8_0_1/lp5mos/models/cap/cdmm6t.scs
Reading file: 
        /projects/bics/designkits/xfab/xp018/cadence/v8_0/spectre/v8_0_1/lp5mos/models/cap/cdmmh6t.scs
Reading file: 
        /projects/bics/designkits/xfab/xp018/cadence/v8_0/spectre/v8_0_1/lp5mos/models/cap/ctmm5.scs
Reading file: 
        /projects/bics/designkits/xfab/xp018/cadence/v8_0/spectre/v8_0_1/lp5mos/models/cap/ctmm5t.scs
Reading file: 
        /projects/bics/designkits/xfab/xp018/cadence/v8_0/spectre/v8_0_1/lp5mos/models/cap/ctmmh5.scs
Reading file: 
        /projects/bics/designkits/xfab/xp018/cadence/v8_0/spectre/v8_0_1/lp5mos/models/cap/ctmmh5t.scs
Reading file: 
        /projects/bics/designkits/xfab/xp018/cadence/v8_0/spectre/v8_0_1/lp5mos/models/cap/ctmm6t.scs
Reading file: 
        /projects/bics/designkits/xfab/xp018/cadence/v8_0/spectre/v8_0_1/lp5mos/models/cap/ctmmh6t.scs
Reading file: 
        /projects/bics/designkits/xfab/xp018/cadence/v8_0/spectre/v8_0_1/lp5mos/models/cap/cp1sub.scs
Reading file: 
        /projects/bics/designkits/xfab/xp018/cadence/v8_0/spectre/v8_0_1/lp5mos/models/cap/cp1suba.scs
Reading file: 
        /projects/bics/designkits/xfab/xp018/cadence/v8_0/spectre/v8_0_1/lp5mos/models/cap/cp1subp.scs
Reading file: 
        /projects/bics/designkits/xfab/xp018/cadence/v8_0/spectre/v8_0_1/lp5mos/models/cap/p_cap.scs
Reading file: 
        /projects/bics/designkits/xfab/xp018/cadence/v8_0/spectre/v8_0_1/lp5mos/models/cap/oc_m60v_60v.scs
Reading file: 
        /projects/bics/designkits/xfab/xp018/cadence/v8_0/spectre/v8_0_1/lp5mos/models/cap/mosvc.scs
Reading file: 
        /projects/bics/designkits/xfab/xp018/cadence/v8_0/spectre/v8_0_1/lp5mos/models/cap/mosvc_pmos.scs
Reading file: 
        /projects/bics/designkits/xfab/xp018/cadence/v8_0/spectre/v8_0_1/lp5mos/models/cap/mosvci_a.scs
Reading file: 
        /projects/bics/designkits/xfab/xp018/cadence/v8_0/spectre/v8_0_1/lp5mos/models/cap/mosvci_b.scs
Reading file: 
        /projects/bics/designkits/xfab/xp018/cadence/v8_0/spectre/v8_0_1/lp5mos/models/cap/mosvci_d.scs
Reading file: 
        /projects/bics/designkits/xfab/xp018/cadence/v8_0/spectre/v8_0_1/lp5mos/models/cap/mosvci_m.scs
Reading file: 
        /projects/bics/designkits/xfab/xp018/cadence/v8_0/spectre/v8_0_1/lp5mos/models/cap/mosvci_nmos.scs
Reading file: 
        /projects/bics/designkits/xfab/xp018/cadence/v8_0/spectre/v8_0_1/lp5mos/models/cap/mosvc5.scs
Reading file: 
        /projects/bics/designkits/xfab/xp018/cadence/v8_0/spectre/v8_0_1/lp5mos/models/cap/mosvc5_pmos.scs
Reading file: 
        /projects/bics/designkits/xfab/xp018/cadence/v8_0/spectre/v8_0_1/lp5mos/models/cap/mosvc5i_a.scs
Reading file: 
        /projects/bics/designkits/xfab/xp018/cadence/v8_0/spectre/v8_0_1/lp5mos/models/cap/mosvc5i_b.scs
Reading file: 
        /projects/bics/designkits/xfab/xp018/cadence/v8_0/spectre/v8_0_1/lp5mos/models/cap/mosvc5i_d.scs
Reading file: 
        /projects/bics/designkits/xfab/xp018/cadence/v8_0/spectre/v8_0_1/lp5mos/models/cap/mosvc5i_m.scs
Reading file: 
        /projects/bics/designkits/xfab/xp018/cadence/v8_0/spectre/v8_0_1/lp5mos/models/cap/mosvc5i_nmos.scs
Reading file: 
        /projects/bics/designkits/xfab/xp018/cadence/v8_0/spectre/v8_0_1/lp5mos/models/cap/tag_25v.scs
Reading file: 
        /projects/bics/designkits/xfab/xp018/cadence/v8_0/spectre/v8_0_1/lp5mos/models/cap/tag_60v.scs
Reading file: 
        /projects/bics/designkits/xfab/xp018/cadence/v8_0/spectre/v8_0_1/lp5mos/models/cap/tag_100v.scs
Reading file: 
        /projects/bics/designkits/xfab/xp018/cadence/v8_0/spectre/v8_0_1/lp5mos/models/cap/tag_m25v.scs
Reading file: 
        /projects/bics/designkits/xfab/xp018/cadence/v8_0/spectre/v8_0_1/lp5mos/models/cap/tag_m60v.scs
Reading file: 
        /projects/bics/designkits/xfab/xp018/cadence/v8_0/spectre/v8_0_1/lp5mos/models/cap/tag_m100v.scs
Reading file: 
        /projects/bics/designkits/xfab/xp018/cadence/v8_0/spectre/v8_0_1/lp5mos/dio.scs
Reading file: 
        /projects/bics/designkits/xfab/xp018/cadence/v8_0/spectre/v8_0_1/lp5mos/models/dio/tm_dio.scs
Reading file: 
        /projects/bics/designkits/xfab/xp018/cadence/v8_0/spectre/v8_0_1/lp5mos/models/dio/dn.scs
Reading file: 
        /projects/bics/designkits/xfab/xp018/cadence/v8_0/spectre/v8_0_1/lp5mos/models/dio/dnn.scs
Reading file: 
        /projects/bics/designkits/xfab/xp018/cadence/v8_0/spectre/v8_0_1/lp5mos/models/dio/dp.scs
Reading file: 
        /projects/bics/designkits/xfab/xp018/cadence/v8_0/spectre/v8_0_1/lp5mos/models/dio/dnw.scs
Reading file: 
        /projects/bics/designkits/xfab/xp018/cadence/v8_0/spectre/v8_0_1/lp5mos/models/dio/dn5.scs
Reading file: 
        /projects/bics/designkits/xfab/xp018/cadence/v8_0/spectre/v8_0_1/lp5mos/models/dio/dnn5.scs
Reading file: 
        /projects/bics/designkits/xfab/xp018/cadence/v8_0/spectre/v8_0_1/lp5mos/models/dio/dp5.scs
Reading file: 
        /projects/bics/designkits/xfab/xp018/cadence/v8_0/spectre/v8_0_1/lp5mos/models/dio/dnw5.scs
Reading file: 
        /projects/bics/designkits/xfab/xp018/cadence/v8_0/spectre/v8_0_1/lp5mos/models/dio/ddnwmv.scs
Reading file: 
        /projects/bics/designkits/xfab/xp018/cadence/v8_0/spectre/v8_0_1/lp5mos/models/dio/ddnw15.scs
Reading file: 
        /projects/bics/designkits/xfab/xp018/cadence/v8_0/spectre/v8_0_1/lp5mos/models/dio/ddnw25.scs
Reading file: 
        /projects/bics/designkits/xfab/xp018/cadence/v8_0/spectre/v8_0_1/lp5mos/models/dio/ddnw60.scs
Reading file: 
        /projects/bics/designkits/xfab/xp018/cadence/v8_0/spectre/v8_0_1/lp5mos/models/dio/dpdnwmv.scs
Reading file: 
        /projects/bics/designkits/xfab/xp018/cadence/v8_0/spectre/v8_0_1/lp5mos/models/dio/dpdnw15.scs
Reading file: 
        /projects/bics/designkits/xfab/xp018/cadence/v8_0/spectre/v8_0_1/lp5mos/models/dio/dpdnw25.scs
Reading file: 
        /projects/bics/designkits/xfab/xp018/cadence/v8_0/spectre/v8_0_1/lp5mos/models/dio/dpdnw60.scs
Reading file: 
        /projects/bics/designkits/xfab/xp018/cadence/v8_0/spectre/v8_0_1/lp5mos/models/dio/dipdnwmv.scs
Reading file: 
        /projects/bics/designkits/xfab/xp018/cadence/v8_0/spectre/v8_0_1/lp5mos/models/dio/dipdnw15.scs
Reading file: 
        /projects/bics/designkits/xfab/xp018/cadence/v8_0/spectre/v8_0_1/lp5mos/models/dio/dipdnw25.scs
Reading file: 
        /projects/bics/designkits/xfab/xp018/cadence/v8_0/spectre/v8_0_1/lp5mos/models/dio/dipdnw60.scs
Reading file: 
        /projects/bics/designkits/xfab/xp018/cadence/v8_0/spectre/v8_0_1/lp5mos/models/dio/dipdnwmvz.scs
Reading file: 
        /projects/bics/designkits/xfab/xp018/cadence/v8_0/spectre/v8_0_1/lp5mos/models/dio/dipdnw15z.scs
Reading file: 
        /projects/bics/designkits/xfab/xp018/cadence/v8_0/spectre/v8_0_1/lp5mos/models/dio/dipdnw25z.scs
Reading file: 
        /projects/bics/designkits/xfab/xp018/cadence/v8_0/spectre/v8_0_1/lp5mos/models/dio/dipdnw60z.scs
Reading file: 
        /projects/bics/designkits/xfab/xp018/cadence/v8_0/spectre/v8_0_1/lp5mos/models/dio/dnp.scs
Reading file: 
        /projects/bics/designkits/xfab/xp018/cadence/v8_0/spectre/v8_0_1/lp5mos/models/dio/dpp.scs
Reading file: 
        /projects/bics/designkits/xfab/xp018/cadence/v8_0/spectre/v8_0_1/lp5mos/models/dio/dsa.scs
Reading file: 
        /projects/bics/designkits/xfab/xp018/cadence/v8_0/spectre/v8_0_1/lp5mos/models/dio/dsaa.scs
Reading file: 
        /projects/bics/designkits/xfab/xp018/cadence/v8_0/spectre/v8_0_1/lp5mos/models/dio/dsaa_qp1.scs
Reading file: 
        /projects/bics/designkits/xfab/xp018/cadence/v8_0/spectre/v8_0_1/lp5mos/models/dio/dsb.scs
Reading file: 
        /projects/bics/designkits/xfab/xp018/cadence/v8_0/spectre/v8_0_1/lp5mos/models/dio/dsba.scs
Reading file: 
        /projects/bics/designkits/xfab/xp018/cadence/v8_0/spectre/v8_0_1/lp5mos/models/dio/dsba_qp1.scs
Reading file: 
        /projects/bics/designkits/xfab/xp018/cadence/v8_0/spectre/v8_0_1/lp5mos/models/dio/dndd.scs
Reading file: 
        /projects/bics/designkits/xfab/xp018/cadence/v8_0/spectre/v8_0_1/lp5mos/models/dio/dpdddnw.scs
Reading file: 
        /projects/bics/designkits/xfab/xp018/cadence/v8_0/spectre/v8_0_1/lp5mos/models/dio/dpdddnw_esd.scs
Reading file: 
        /projects/bics/designkits/xfab/xp018/cadence/v8_0/spectre/v8_0_1/lp5mos/models/dio/dpddipdnw_esd.scs
Reading file: 
        /projects/bics/designkits/xfab/xp018/cadence/v8_0/spectre/v8_0_1/lp5mos/models/dio/dnddpb.scs
Reading file: 
        /projects/bics/designkits/xfab/xp018/cadence/v8_0/spectre/v8_0_1/lp5mos/models/dio/dvdnw.scs
Reading file: 
        /projects/bics/designkits/xfab/xp018/cadence/v8_0/spectre/v8_0_1/lp5mos/models/dio/dvdnw_esd.scs
Reading file: 
        /projects/bics/designkits/xfab/xp018/cadence/v8_0/spectre/v8_0_1/lp5mos/models/dio/ddpbvdnw.scs
Reading file: 
        /projects/bics/designkits/xfab/xp018/cadence/v8_0/spectre/v8_0_1/lp5mos/models/dio/dpd2dnw.scs
Reading file: 
        /projects/bics/designkits/xfab/xp018/cadence/v8_0/spectre/v8_0_1/lp5mos/models/dio/dndddpb.scs
Reading file: 
        /projects/bics/designkits/xfab/xp018/cadence/v8_0/spectre/v8_0_1/lp5mos/models/dio/dpddvdnw_esd.scs
Reading file: 
        /projects/bics/designkits/xfab/xp018/cadence/v8_0/spectre/v8_0_1/lp5mos/models/dio/dpburvdnw.scs
Reading file: 
        /projects/bics/designkits/xfab/xp018/cadence/v8_0/spectre/v8_0_1/lp5mos/models/dio/dpddvdnw.scs
Reading file: 
        /projects/bics/designkits/xfab/xp018/cadence/v8_0/spectre/v8_0_1/lp5mos/models/dio/dpddipvdnw_esd.scs
Reading file: 
        /projects/bics/designkits/xfab/xp018/cadence/v8_0/spectre/v8_0_1/lp5mos/models/dio/dn5nm.scs
Reading file: 
        /projects/bics/designkits/xfab/xp018/cadence/v8_0/spectre/v8_0_1/lp5mos/models/dio/dp5pm.scs
Reading file: 
        /projects/bics/designkits/xfab/xp018/cadence/v8_0/spectre/v8_0_1/lp5mos/models/dio/dza_a.scs
Reading file: 
        /projects/bics/designkits/xfab/xp018/cadence/v8_0/spectre/v8_0_1/lp5mos/models/dio/dza_b.scs
Reading file: 
        /projects/bics/designkits/xfab/xp018/cadence/v8_0/spectre/v8_0_1/lp5mos/models/dio/dza_d.scs
Reading file: 
        /projects/bics/designkits/xfab/xp018/cadence/v8_0/spectre/v8_0_1/lp5mos/models/dio/dza_m.scs
Reading file: 
        /projects/bics/designkits/xfab/xp018/cadence/v8_0/spectre/v8_0_1/lp5mos/models/dio/dzb_a.scs
Reading file: 
        /projects/bics/designkits/xfab/xp018/cadence/v8_0/spectre/v8_0_1/lp5mos/models/dio/dzb_b.scs
Reading file: 
        /projects/bics/designkits/xfab/xp018/cadence/v8_0/spectre/v8_0_1/lp5mos/models/dio/dzb_d.scs
Reading file: 
        /projects/bics/designkits/xfab/xp018/cadence/v8_0/spectre/v8_0_1/lp5mos/models/dio/dzb_m.scs
Reading file: 
        /projects/bics/designkits/xfab/xp018/cadence/v8_0/spectre/v8_0_1/lp5mos/models/dio/dzc.scs
Reading file: 
        /projects/bics/designkits/xfab/xp018/cadence/v8_0/spectre/v8_0_1/lp5mos/models/dio/ddnwnvm.scs
Reading file: 
        /projects/bics/designkits/xfab/xp018/cadence/v8_0/spectre/v8_0_1/lp5mos/models/dio/dipdnwnvm.scs
Reading file: 
        /projects/bics/designkits/xfab/xp018/cadence/v8_0/spectre/v8_0_1/lp5mos/models/dio/dpdnwnvm.scs
Reading file: 
        /projects/bics/designkits/xfab/xp018/cadence/v8_0/spectre/v8_0_1/lp5mos/models/dio/dpsdnwnvm.scs
Reading file: 
        /projects/bics/designkits/xfab/xp018/cadence/v8_0/spectre/v8_0_1/lp5mos/models/dio/dpsdnwmv.scs
Reading file: 
        /projects/bics/designkits/xfab/xp018/cadence/v8_0/spectre/v8_0_1/lp5mos/models/dio/dn5ps.scs
Reading file: 
        /projects/bics/designkits/xfab/xp018/cadence/v8_0/spectre/v8_0_1/lp5mos/mos.scs
Reading file: 
        /projects/bics/designkits/xfab/xp018/cadence/v8_0/spectre/v8_0_1/lp5mos/models/mos/tm_mos.scs
Reading file: 
        /projects/bics/designkits/xfab/xp018/cadence/v8_0/spectre/v8_0_1/lp5mos/models/mos/ne.scs
Reading file: 
        /projects/bics/designkits/xfab/xp018/cadence/v8_0/spectre/v8_0_1/lp5mos/models/mos/pe.scs
Reading file: 
        /projects/bics/designkits/xfab/xp018/cadence/v8_0/spectre/v8_0_1/lp5mos/models/mos/pe_5.scs
Reading file: 
        /projects/bics/designkits/xfab/xp018/cadence/v8_0/spectre/v8_0_1/lp5mos/models/mos/nn.scs
Reading file: 
        /projects/bics/designkits/xfab/xp018/cadence/v8_0/spectre/v8_0_1/lp5mos/models/mos/nei.scs
Reading file: 
        /projects/bics/designkits/xfab/xp018/cadence/v8_0/spectre/v8_0_1/lp5mos/models/mos/nei_m_6.scs
Reading file: 
[...]
Reading file: 
        /projects/bics/designkits/xfab/xp018/cadence/v8_0/spectre/v8_0_1/lp5mos/models/mos/pmb.scs
Reading file: 
        /projects/bics/designkits/xfab/xp018/cadence/v8_0/spectre/v8_0_1/lp5mos/models/mos/pmb_bjt.scs
Reading file: 
        /projects/bics/designkits/xfab/xp018/cadence/v8_0/spectre/v8_0_1/lp5mos/models/mos/pmmc.scs
Reading file: 
        /projects/bics/designkits/xfab/xp018/cadence/v8_0/spectre/v8_0_1/lp5mos/models/mos/pmmc_bjt.scs
Reading file: 
        /projects/bics/designkits/xfab/xp018/cadence/v8_0/spectre/v8_0_1/lp5mos/models/mos/pmc.scs
Reading file: 
        /projects/bics/designkits/xfab/xp018/cadence/v8_0/spectre/v8_0_1/lp5mos/models/mos/pmc_bjt.scs
Reading file: 
        /projects/bics/designkits/xfab/xp018/cadence/v8_0/spectre/v8_0_1/lp5mos/models/mos/nhva.scs
Reading file: 
        /projects/bics/designkits/xfab/xp018/cadence/v8_0/spectre/v8_0_1/lp5mos/models/mos/nhva_bjt.scs
Reading file: 
        /projects/bics/designkits/xfab/xp018/cadence/v8_0/spectre/v8_0_1/lp5mos/models/mos/nhvb.scs
Reading file: 
        /projects/bics/designkits/xfab/xp018/cadence/v8_0/spectre/v8_0_1/lp5mos/models/mos/nhvb_bjt.scs
Reading file: 
        /projects/bics/designkits/xfab/xp018/cadence/v8_0/spectre/v8_0_1/lp5mos/models/mos/phva.scs
Reading file: 
        /projects/bics/designkits/xfab/xp018/cadence/v8_0/spectre/v8_0_1/lp5mos/models/mos/phva_bjt.scs
Reading file: 
        /projects/bics/designkits/xfab/xp018/cadence/v8_0/spectre/v8_0_1/lp5mos/models/mos/phvb.scs
Reading file: 
        /projects/bics/designkits/xfab/xp018/cadence/v8_0/spectre/v8_0_1/lp5mos/models/mos/phvb_bjt.scs
Reading file: 
        /projects/bics/designkits/xfab/xp018/cadence/v8_0/spectre/v8_0_1/lp5mos/models/mos/ndia.scs
Reading file: 
        /projects/bics/designkits/xfab/xp018/cadence/v8_0/spectre/v8_0_1/lp5mos/models/mos/ndia_bjt.scs
Reading file: 
        /projects/bics/designkits/xfab/xp018/cadence/v8_0/spectre/v8_0_1/lp5mos/models/mos/ndib.scs
Reading file: 
        /projects/bics/designkits/xfab/xp018/cadence/v8_0/spectre/v8_0_1/lp5mos/models/mos/ndib_bjt.scs
Reading file: 
        /projects/bics/designkits/xfab/xp018/cadence/v8_0/spectre/v8_0_1/lp5mos/res.scs
Reading file: 
        /projects/bics/designkits/xfab/xp018/cadence/v8_0/spectre/v8_0_1/lp5mos/models/res/tm_res.scs
Reading file: 
        /projects/bics/designkits/xfab/xp018/cadence/v8_0/spectre/v8_0_1/lp5mos/models/res/rdn.scs
Reading file: 
        /projects/bics/designkits/xfab/xp018/cadence/v8_0/spectre/v8_0_1/lp5mos/models/res/rdp.scs
Reading file: 
        /projects/bics/designkits/xfab/xp018/cadence/v8_0/spectre/v8_0_1/lp5mos/models/res/rnw.scs
Reading file: 
        /projects/bics/designkits/xfab/xp018/cadence/v8_0/spectre/v8_0_1/lp5mos/models/res/rnw_scr.scs
Reading file: 
        /projects/bics/designkits/xfab/xp018/cadence/v8_0/spectre/v8_0_1/lp5mos/models/res/rdn5.scs
Reading file: 
        /projects/bics/designkits/xfab/xp018/cadence/v8_0/spectre/v8_0_1/lp5mos/models/res/rdn5_dpc.scs
Reading file: 
        /projects/bics/designkits/xfab/xp018/cadence/v8_0/spectre/v8_0_1/lp5mos/models/res/rdp5.scs
Reading file: 
        /projects/bics/designkits/xfab/xp018/cadence/v8_0/spectre/v8_0_1/lp5mos/models/res/rnw5.scs
Reading file: 
        /projects/bics/designkits/xfab/xp018/cadence/v8_0/spectre/v8_0_1/lp5mos/models/res/rnw5_scr.scs
Reading file: 
        /projects/bics/designkits/xfab/xp018/cadence/v8_0/spectre/v8_0_1/lp5mos/models/res/rdnwmv.scs
Reading file: 
        /projects/bics/designkits/xfab/xp018/cadence/v8_0/spectre/v8_0_1/lp5mos/models/res/rnp1.scs
Reading file: 
        /projects/bics/designkits/xfab/xp018/cadence/v8_0/spectre/v8_0_1/lp5mos/models/res/rnp1_3.scs
Reading file: 
        /projects/bics/designkits/xfab/xp018/cadence/v8_0/spectre/v8_0_1/lp5mos/models/res/rpp1.scs
Reading file: 
        /projects/bics/designkits/xfab/xp018/cadence/v8_0/spectre/v8_0_1/lp5mos/models/res/rpp1_3.scs
Reading file: 
        /projects/bics/designkits/xfab/xp018/cadence/v8_0/spectre/v8_0_1/lp5mos/models/res/rpp1s.scs
Reading file: 
        /projects/bics/designkits/xfab/xp018/cadence/v8_0/spectre/v8_0_1/lp5mos/models/res/rpp1s_3.scs
Reading file: 
        /projects/bics/designkits/xfab/xp018/cadence/v8_0/spectre/v8_0_1/lp5mos/models/res/rnp1h.scs
Reading file: 
        /projects/bics/designkits/xfab/xp018/cadence/v8_0/spectre/v8_0_1/lp5mos/models/res/rnp1h_3.scs
Reading file: 
        /projects/bics/designkits/xfab/xp018/cadence/v8_0/spectre/v8_0_1/lp5mos/models/res/rpp1k1.scs
Reading file: 
        /projects/bics/designkits/xfab/xp018/cadence/v8_0/spectre/v8_0_1/lp5mos/models/res/rpp1k1_3.scs
Reading file: 
        /projects/bics/designkits/xfab/xp018/cadence/v8_0/spectre/v8_0_1/lp5mos/models/res/rm1.scs
Reading file: 
        /projects/bics/designkits/xfab/xp018/cadence/v8_0/spectre/v8_0_1/lp5mos/models/res/rm2.scs
Reading file: 
        /projects/bics/designkits/xfab/xp018/cadence/v8_0/spectre/v8_0_1/lp5mos/models/res/rm3.scs
Reading file: 
        /projects/bics/designkits/xfab/xp018/cadence/v8_0/spectre/v8_0_1/lp5mos/models/res/rm4.scs
Reading file: 
        /projects/bics/designkits/xfab/xp018/cadence/v8_0/spectre/v8_0_1/lp5mos/models/res/rm5.scs
Reading file: 
        /projects/bics/designkits/xfab/xp018/cadence/v8_0/spectre/v8_0_1/lp5mos/models/res/rmtp.scs
Reading file: 
        /projects/bics/designkits/xfab/xp018/cadence/v8_0/spectre/v8_0_1/lp5mos/models/res/rmtpl.scs
Reading file: 
        /projects/bics/designkits/xfab/xp018/cadence/v8_0/spectre/v8_0_1/lp5mos/models/res/rctdn.scs
Reading file: 
        /projects/bics/designkits/xfab/xp018/cadence/v8_0/spectre/v8_0_1/lp5mos/models/res/rctdp.scs
Reading file: 
        /projects/bics/designkits/xfab/xp018/cadence/v8_0/spectre/v8_0_1/lp5mos/models/res/rsildn.scs
Reading file: 
        /projects/bics/designkits/xfab/xp018/cadence/v8_0/spectre/v8_0_1/lp5mos/models/res/rsildp.scs
Reading file: 
        /projects/bics/designkits/xfab/xp018/cadence/v8_0/spectre/v8_0_1/lp5mos/models/res/rctp1.scs
Reading file: 
        /projects/bics/designkits/xfab/xp018/cadence/v8_0/spectre/v8_0_1/lp5mos/models/res/rsilnp1.scs
Reading file: 
        /projects/bics/designkits/xfab/xp018/cadence/v8_0/spectre/v8_0_1/lp5mos/models/res/rsilpp1.scs
Reading file: 
        /projects/bics/designkits/xfab/xp018/cadence/v8_0/spectre/v8_0_1/lp5mos/models/res/rsbdn.scs
Reading file: 
        /projects/bics/designkits/xfab/xp018/cadence/v8_0/spectre/v8_0_1/lp5mos/models/res/rsbdp.scs
Reading file: 
        /projects/bics/designkits/xfab/xp018/cadence/v8_0/spectre/v8_0_1/lp5mos/models/res/rsbdn5.scs
Reading file: 
        /projects/bics/designkits/xfab/xp018/cadence/v8_0/spectre/v8_0_1/lp5mos/models/res/rsbdp5.scs
Reading file: 
        /projects/bics/designkits/xfab/xp018/cadence/v8_0/spectre/v8_0_1/lp5mos/models/res/rsbnp1.scs
Reading file: 
        /projects/bics/designkits/xfab/xp018/cadence/v8_0/spectre/v8_0_1/lp5mos/models/res/rsbpp1.scs
Reading file: 
        /projects/bics/designkits/xfab/xp018/cadence/v8_0/spectre/v8_0_1/lp5mos/models/res/rsbpp1k1.scs
Reading file: 
        /projects/bics/designkits/xfab/xp018/cadence/v8_0/spectre/v8_0_1/lp5mos/models/res/pfuse.scs
Reading file: 
        /projects/bics/designkits/xfab/xp018/cadence/v8_0/spectre/v8_0_1/lp5mos/models/res/p_rm1.scs
Reading file: 
        /projects/bics/designkits/xfab/xp018/cadence/v8_0/spectre/v8_0_1/lp5mos/models/res/p_rm2.scs
Reading file: 
        /projects/bics/designkits/xfab/xp018/cadence/v8_0/spectre/v8_0_1/lp5mos/models/res/p_rm3.scs
Reading file: 
        /projects/bics/designkits/xfab/xp018/cadence/v8_0/spectre/v8_0_1/lp5mos/models/res/p_rm4.scs
Reading file: 
        /projects/bics/designkits/xfab/xp018/cadence/v8_0/spectre/v8_0_1/lp5mos/models/res/p_rm5.scs
Reading file: 
        /projects/bics/designkits/xfab/xp018/cadence/v8_0/spectre/v8_0_1/lp5mos/models/res/p_rmtp.scs
Reading file: 
        /projects/bics/designkits/xfab/xp018/cadence/v8_0/spectre/v8_0_1/lp5mos/models/res/p_rmtpl.scs
Reading file: 
        /projects/bics/designkits/xfab/xp018/cadence/v8_0/spectre/v8_0_1/lp5mos/models/res/p_rvia1.scs
Reading file: 
        /projects/bics/designkits/xfab/xp018/cadence/v8_0/spectre/v8_0_1/lp5mos/models/res/p_rvia2.scs
Reading file: 
        /projects/bics/designkits/xfab/xp018/cadence/v8_0/spectre/v8_0_1/lp5mos/models/res/p_rvia3.scs
Reading file: 
        /projects/bics/designkits/xfab/xp018/cadence/v8_0/spectre/v8_0_1/lp5mos/models/res/p_rvia4.scs
Reading file: 
        /projects/bics/designkits/xfab/xp018/cadence/v8_0/spectre/v8_0_1/lp5mos/models/res/p_rviatp.scs
Reading file: 
        /projects/bics/designkits/xfab/xp018/cadence/v8_0/spectre/v8_0_1/lp5mos/models/res/p_rviatpl.scs
Reading file: 
        /projects/bics/designkits/xfab/xp018/cadence/v8_0/spectre/v8_0_1/lp5mos/models/res/p_rctdn.scs
Reading file: 
        /projects/bics/designkits/xfab/xp018/cadence/v8_0/spectre/v8_0_1/lp5mos/models/res/p_rctdp.scs
Reading file: 
        /projects/bics/designkits/xfab/xp018/cadence/v8_0/spectre/v8_0_1/lp5mos/models/res/p_rctp1.scs
Reading file: 
        /projects/bics/designkits/xfab/xp018/cadence/v8_0/spectre/v8_0_1/lp5mos/models/res/p_rp1s.scs
Reading file: 
        /projects/bics/designkits/xfab/xp018/cadence/v8_0/spectre/v8_0_1/lp5mos/models/res/s_res.scs
Time for NDB Parsing: CPU = 508.679 ms, elapsed = 1.3096 s.
Time accumulated: CPU = 639.791 ms, elapsed = 1.30961 s.
Peak resident memory used = 95.6 Mbytes.

Time for Elaboration: CPU = 24.327 ms, elapsed = 24.3499 ms.
Time accumulated: CPU = 664.636 ms, elapsed = 1.34044 s.
Peak resident memory used = 103 Mbytes.


Notice from spectre during hierarchy flattening.
    The value 'psf' specified for the 'checklimitdest' option will no longer be
        supported in future releases. Use 'spectre -h' to see other recommended
        values for the 'checklimitdest' option.

 Start ADE Session ID: EEKAHCIYOfIwgj9p

Time for EDB Visiting: CPU = 3.121 ms, elapsed = 10.4151 ms.
Time accumulated: CPU = 668.161 ms, elapsed = 1.35953 s.
Peak resident memory used = 104 Mbytes.

Reading file: 
        /home/s5117909/Documents/thesis/thesis_codebase/experiments/frequency_sweep/input_data/spike_train_output/st_1/8001_hz/trial_1.pwl
Reading file: 
        /home/s5117909/Documents/thesis/thesis_codebase/experiments/frequency_sweep/input_data/spike_train_output/st_2/8001_hz/trial_1.pwl

Global user options:
         psfversion = 1.4.0
            vabstol = 1e-06
            iabstol = 1e-12
               temp = 27
               gmin = 1e-12
             rforce = 1
           maxnotes = 5
           maxwarns = 5
             digits = 5
               cols = 80
             pivrel = 0.001
           sensfile =
        ../../../../../Documents/thesis/thesis_codebase/thesis_database/20260527_194336_2channel_1syn_plain/netlist_template/raw/psf/sens.output
     checklimitdest = psf
               save = allpub
             reltol = 0.001
               tnom = 27
             scalem = 1
              scale = 1

Scoped user options:

Circuit inventory:
              nodes 9
            bsim3v3 6     
          capacitor 1     
            vsource 6     

Analysis and control statement inventory:
               info 7     
               tran 1     

Output statements:
             .probe 0     
           .measure 0     
               save 1     

Design checks inventory:
          paramtest 1     


Notice from spectre during initial setup.
    Protected devices exist and are not included in the circuit inventory.

Time for parsing: CPU = 23.535 ms, elapsed = 106.113 ms.
Time accumulated: CPU = 692.372 ms, elapsed = 1.47305 s.
Peak resident memory used = 107 Mbytes.

~~~~~~~~~~~~~~~~~~~~~~
Pre-Simulation Summary
~~~~~~~~~~~~~~~~~~~~~~
~~~~~~~~~~~~~~~~~~~~~~

*************************************************
Transient Analysis `tran': time = (0 s -> 500 ms)
*************************************************

Notice from spectre during IC analysis, during transient analysis `tran'.
    GminDC = 1 pS is large enough to noticeably affect the DC solution.
        dV(M4.m1:int_d) = -23.9541 mV
        Use the `gmin_check' option to eliminate or expand this report.
Warning from spectre during IC analysis, during transient analysis `tran'.
    WARNING (CMI-2139): I56.M5.m1: The bulk-source junction current exceeds
        `imelt'.  The results computed by Spectre may be inaccurate because the
        junction current model has been linearized.
    WARNING (CMI-2139): I56.M4.m1: The bulk-source junction current exceeds
        `imelt'.  The results computed by Spectre may be inaccurate because the
        junction current model has been linearized.

DC simulation time: CPU = 3.576 ms, elapsed = 19.9339 ms.

Opening the PSFXL file
        /home/s5117909/Documents/thesis/thesis_codebase/database/20260601_141611_2channel_1syn_plain/cases/st1_8001_hz__st2_8001_hz__trial_1/psf/tran.tran.tran
        ...
Important parameter values:
    start = 0 s
    outputstart = 0 s
    stop = 500 ms
    step = 500 us
    maxstep = 10 ms
    ic = all
    useprevic = no
    skipdc = no
    reltol = 1e-03
    abstol(V) = 1 uV
    abstol(I) = 1 pA
    temp = 27 C
    tnom = 27 C
    tempeffects = all
    errpreset = moderate
    method = traponly
    lteratio = 3.5
    relref = sigglobal
    cmin = 0 F
    gmin = 1 pS


Output and IC/nodeset summary:
                 save   6       (current)
                 save   9       (voltage)


Warning from spectre at time = 58.1488 us during transient analysis `tran'.
    WARNING (CMI-2139): I56.M5.m1: The bulk-source junction current exceeds
        `imelt'.  The results computed by Spectre may be inaccurate because the
        junction current model has been linearized.
    WARNING (CMI-2139): I56.M4.m1: The bulk-source junction current exceeds
        `imelt'.  The results computed by Spectre may be inaccurate because the
        junction current model has been linearized.
Notice from spectre at time = 58.1676 us during transient analysis `tran'.
    Found trapezoidal ringing on node M2.m1:int_d.
Notice from spectre at time = 58.1759 us during transient analysis `tran'.
    Found trapezoidal ringing on node M2.m1:int_d.
Notice from spectre at time = 58.1923 us during transient analysis `tran'.
    Found trapezoidal ringing on node M2.m1:int_d.
Notice from spectre at time = 58.2252 us during transient analysis `tran'.
    Found trapezoidal ringing on node M2.m1:int_d.
Notice from spectre at time = 58.5103 us during transient analysis `tran'.
    Found trapezoidal ringing on node M2.m1:int_d.
        Further occurrences of this notice will be suppressed (except in log
        file).

    tran: time = 12.52 ms     (2.5 %), step = 34.19 us    (6.84 m%)
    tran: time = 37.52 ms     (7.5 %), step = 30.98 us     (6.2 m%)
    tran: time = 62.5 ms     (12.5 %), step = 2.473 us     (495 u%)
    tran: time = 87.51 ms    (17.5 %), step = 10.27 us    (2.05 m%)
    tran: time = 116.1 ms    (23.2 %), step = 7.673 ms     (1.53 %)
    tran: time = 146.1 ms    (29.2 %), step = 10 ms           (2 %)
    tran: time = 166.1 ms    (33.2 %), step = 10 ms           (2 %)
    tran: time = 196.1 ms    (39.2 %), step = 10 ms           (2 %)
    tran: time = 216.1 ms    (43.2 %), step = 10 ms           (2 %)
    tran: time = 246.1 ms    (49.2 %), step = 10 ms           (2 %)
    tran: time = 266.1 ms    (53.2 %), step = 10 ms           (2 %)
    tran: time = 296.1 ms    (59.2 %), step = 10 ms           (2 %)
    tran: time = 316.1 ms    (63.2 %), step = 10 ms           (2 %)
    tran: time = 346.1 ms    (69.2 %), step = 10 ms           (2 %)
    tran: time = 366.1 ms    (73.2 %), step = 10 ms           (2 %)
    tran: time = 396.1 ms    (79.2 %), step = 10 ms           (2 %)
    tran: time = 416.1 ms    (83.2 %), step = 10 ms           (2 %)
    tran: time = 446.1 ms    (89.2 %), step = 10 ms           (2 %)
    tran: time = 466.1 ms    (93.2 %), step = 10 ms           (2 %)
    tran: time = 493.1 ms    (98.6 %), step = 6.926 ms     (1.39 %)
Number of accepted tran steps =             119894

Notice from spectre during transient analysis `tran'.
    Trapezoidal ringing is detected during tran analysis.
        Please use method=trap for better results and performance.


Maximum value achieved for any signal of each quantity: 
V: V(vpre) = 3.6 V
I: I(V1:p) = 447.3 mA
If your circuit contains signals of the same quantity that are vastly different
        in size (such as high voltage circuitry combined with low voltage
        control circuitry), you should consider specifying global option
        `bin_relref=yes'.

~~~~~~~~~~~~~~~~~~~~~~~~~~~~~~~~~
Post-Transient Simulation Summary
~~~~~~~~~~~~~~~~~~~~~~~~~~~~~~~~~
   -   To further speed up simulation, consider
          add ++aps on command line
~~~~~~~~~~~~~~~~~~~~~~~~~~~~~~~~~


During simulation, the CPU load for active processors is :
         0 (2.4 %)       1 (68.5 %)      2 (12.9 %)      3 (2.4 %)
         4 (2.2 %)       5 (6.5 %)       6 (2.9 %)       7 (2.4 %)
         8 (9.5 %)       9 (3.6 %)      10 (2.0 %)      11 (2.3 %)
        Total: 117.6%
Initial condition solution time: CPU = 3.88 ms, elapsed = 21.6341 ms.
Intrinsic tran analysis time:    CPU = 5.33916 s, elapsed = 5.45669 s.
Total time required for tran analysis `tran': CPU = 5.35226 s, elapsed =
        5.54033 s, util. = 96.6%.
Time accumulated: CPU = 6.22743 s, elapsed = 8.46896 s.
Peak resident memory used = 149 Mbytes.


Notice from spectre.
    6540 notices suppressed.

finalTimeOP: writing operating point information to rawfile.

Opening the PSF file
        /home/s5117909/Documents/thesis/thesis_codebase/database/20260601_141611_2channel_1syn_plain/cases/st1_8001_hz__st2_8001_hz__trial_1/psf/finalTimeOP.info
        ...
modelParameter: writing model parameter values to rawfile.

Opening the PSF file
        /home/s5117909/Documents/thesis/thesis_codebase/database/20260601_141611_2channel_1syn_plain/cases/st1_8001_hz__st2_8001_hz__trial_1/psf/modelParameter.info
        ...
element: writing instance parameter values to rawfile.

Opening the PSF file
        /home/s5117909/Documents/thesis/thesis_codebase/database/20260601_141611_2channel_1syn_plain/cases/st1_8001_hz__st2_8001_hz__trial_1/psf/element.info
        ...
outputParameter: writing output parameter values to rawfile.

Opening the PSF file
        /home/s5117909/Documents/thesis/thesis_codebase/database/20260601_141611_2channel_1syn_plain/cases/st1_8001_hz__st2_8001_hz__trial_1/psf/outputParameter.info
        ...
designParamVals: writing netlist parameters to rawfile.

Opening the PSFASCII file
        /home/s5117909/Documents/thesis/thesis_codebase/database/20260601_141611_2channel_1syn_plain/cases/st1_8001_hz__st2_8001_hz__trial_1/psf/designParamVals.info
        ...
primitives: writing primitives to rawfile.

Opening the PSFASCII file
        /home/s5117909/Documents/thesis/thesis_codebase/database/20260601_141611_2channel_1syn_plain/cases/st1_8001_hz__st2_8001_hz__trial_1/psf/primitives.info.primitives
        ...
subckts: writing subcircuits to rawfile.

Opening the PSFASCII file
        /home/s5117909/Documents/thesis/thesis_codebase/database/20260601_141611_2channel_1syn_plain/cases/st1_8001_hz__st2_8001_hz__trial_1/psf/subckts.info.subckts
        ...
Licensing Information:
Lic Summary:
[14:23:00.317730] Cdslmd servers:5280@lic009.workspace.rug.nl
[14:23:00.317754] Feature usage summary:
[14:23:00.317755] Virtuoso_Multi_mode_Simulation


Aggregate audit (2:23:00 PM, Mon Jun 1, 2026):
Time used: CPU = 6.29 s, elapsed = 8.71 s, util. = 72.2%.
Time spent in licensing: elapsed = 78 ms.
Peak memory used = 149 Mbytes.
Simulation started at: 2:22:52 PM, Mon Jun 1, 2026, ended at: 2:23:00 PM, Mon
        Jun 1, 2026, with elapsed time (wall clock): 8.71 s.
spectre completes with 0 errors, 4 warnings, and 11 notices.
FAILED case_id=80 export_rc=127
worker=0 end=2026-06-01T14:23:00+0200
